<?xml version="1.0" encoding="UTF-8"?>

<!-- generated on 2026-04-09T04:04:07.159443+05:30 by Eclipse SUMO duarouter 1.26.0
<duarouterConfiguration xmlns:xsi="http://www.w3.org/2001/XMLSchema-instance" xsi:noNamespaceSchemaLocation="http://sumo.dlr.de/xsd/duarouterConfiguration.xsd">

    <input>
        <net-file value="map.net.xml"/>
        <route-files value="trips_new.trips.xml"/>
    </input>

    <output>
        <output-file value="routes_new.rou.xml"/>
    </output>

</duarouterConfiguration>
-->

<routes xmlns:xsi="http://www.w3.org/2001/XMLSchema-instance" xsi:noNamespaceSchemaLocation="http://sumo.dlr.de/xsd/routes_file.xsd">
    <vehicle id="0" depart="0.00">
        <route edges="1445926303#3 1445926304 798234860#1 -469966399#6 -469966399#5 -469966399#4 -469966399#3 -469966399#2 475071113#0 1445927130 -469966399#0 -1018228073#0"/>
    </vehicle>
    <vehicle id="1" depart="30.00">
        <route edges="-1445927128 475071113#5 475071113#6 -475071113#2 -1445927127 469966399#3 469966399#4 469966399#5 -469966399#5"/>
    </vehicle>
    <vehicle id="2" depart="60.00">
        <route edges="1445927129 475071113#4 1445927128"/>
    </vehicle>
    <vehicle id="3" depart="90.00">
        <route edges="475071113#5 475071113#6 -475071113#2 -1445927127 469966399#3 695769602 469966400#1 695769603 469966400#3 469966400#4 469966399#10 1445926303#0 1445926305#0 1445926305#1 -1445926305#1"/>
    </vehicle>
    <vehicle id="4" depart="120.00">
        <route edges="-469966399#9 -469966399#8 -469966399#7 -469966399#6 -469966399#5 -469966399#4 -469966399#3 -469966399#2 475071113#0 1445927130 -469966399#0 -1018228073#0"/>
    </vehicle>
    <vehicle id="5" depart="150.00">
        <route edges="-1445926308#0 1445926305#2 1445926303#3 1445926303#4"/>
    </vehicle>
    <vehicle id="6" depart="180.00">
        <route edges="-1018228073#1 469966399#0 469966399#1 469966399#2 469966399#3 695769602 469966400#1 695769603 469966400#3 695769605 -469966399#12"/>
    </vehicle>
    <vehicle id="7" depart="210.00">
        <route edges="1445926305#0 1445926305#1 1445926305#2 1445926303#3 1445926303#4"/>
    </vehicle>
    <vehicle id="8" depart="240.00">
        <route edges="-1445926308#0 -1445926305#1 -1445926305#0 -1445926303#0 469966399#11 -527232518#1 -527232518#0 -1445926306#1 1445926307"/>
    </vehicle>
    <vehicle id="9" depart="270.00">
        <route edges="469966399#4 -469966399#4 -469966399#3 -469966399#2 475071113#0 1445927130 -469966399#0 -1018228073#0"/>
    </vehicle>
    <vehicle id="10" depart="300.00">
        <route edges="469966399#4 -469966399#4 -469966399#3 1445927127 475071113#2 -475071113#6 -475071113#5 1445927128"/>
    </vehicle>
    <vehicle id="11" depart="330.00">
        <route edges="-469966399#14 -469966399#13 -469966399#12 -469966399#11 -469966399#10 -469966399#9 -469966399#8 -469966399#7 -469966399#6 -469966399#5 -469966399#4 -469966399#3 1445927127 475071113#2 -475071113#6 -475071113#5 -475071113#4 -1445927129"/>
    </vehicle>
    <vehicle id="12" depart="360.00">
        <route edges="798234860#0 -798234860#0"/>
    </vehicle>
    <vehicle id="13" depart="390.00">
        <route edges="-1445926300 475071113#6 -475071113#2 -1445927127 469966399#3 695769602 469966400#1 695769603 469966400#3 469966400#4 469966399#10 469966399#11 -527232518#1 -527232518#0 -1445926306#1 -1445926306#0"/>
    </vehicle>
    <vehicle id="14" depart="420.00">
        <route edges="469966400#1 695769603 469966400#3 469966400#4 469966399#10 1445926303#0 1445926305#0 1445926305#1 1445926309"/>
    </vehicle>
    <vehicle id="15" depart="450.00">
        <route edges="469966399#4 469966399#5 695769583 695769604 1462849220"/>
    </vehicle>
    <vehicle id="16" depart="480.00">
        <route edges="-695769583 695769583"/>
    </vehicle>
    <vehicle id="17" depart="510.00">
        <route edges="-469966399#14 -1445926308#1 -1445926309 1445926305#2 1445926303#3 1445926303#4"/>
    </vehicle>
    <vehicle id="18" depart="540.00">
        <route edges="469966399#8 469966399#9 469966399#10 1445926303#0 1445926305#0 1445926311"/>
    </vehicle>
    <vehicle id="19" depart="570.00">
        <route edges="469966400#4 469966399#10 469966399#11 -527232518#1 1445926306#0"/>
    </vehicle>
    <vehicle id="20" depart="600.00">
        <route edges="1445927129 475071113#4 475071113#5 475071113#6 -475071113#2 -475071113#1 1445927130 -469966399#0 -1018228073#0"/>
    </vehicle>
    <vehicle id="21" depart="630.00">
        <route edges="-1445926308#1 -1445926309 -1445926305#1 -1445926305#0 -1445926303#0 -469966399#10 -469966399#9 -469966399#8 -469966399#7 -469966399#6 -469966399#5 -469966399#4 -469966399#3 1445927127 475071113#2 -475071113#6 -475071113#5 -475071113#4 -475071113#3"/>
    </vehicle>
    <vehicle id="22" depart="660.00">
        <route edges="-1445926300 475071113#6 -475071113#2 -1445927127 469966399#3 469966399#4 469966399#5 695769583 695769604 -469966399#8 -469966399#7"/>
    </vehicle>
    <vehicle id="23" depart="690.00">
        <route edges="-1445926300 475071113#6 -475071113#2 -475071113#1 -475071113#0"/>
    </vehicle>
    <vehicle id="24" depart="720.00">
        <route edges="1445926303#2 1445926303#3 1445926304 -798234860#0"/>
    </vehicle>
    <vehicle id="25" depart="750.00">
        <route edges="-469966399#14 -469966399#13 -469966399#12 -469966399#11 -469966399#10 -469966399#9 -469966399#8 -469966399#7 -469966399#6 -469966399#5 -469966399#4 -469966399#3 -469966399#2"/>
    </vehicle>
    <vehicle id="26" depart="780.00">
        <route edges="-1445927128 475071113#5 475071113#6 -475071113#2 475071113#2"/>
    </vehicle>
    <vehicle id="27" depart="810.00">
        <route edges="1445926305#0 1445926311"/>
    </vehicle>
    <vehicle id="28" depart="840.00">
        <route edges="-1445926303#4 -1445926303#3 -1445926303#2 -1445926303#1 -1445926303#0 -469966399#10 -469966399#9 1462849220"/>
    </vehicle>
    <vehicle id="29" depart="870.00">
        <route edges="-1445926303#4 1445926304 798234860#1 -469966399#6 -469966399#5 -469966399#4 -469966399#3 -469966399#2 475071113#0 1445927130 -469966399#0 1018228073#1"/>
    </vehicle>
    <vehicle id="30" depart="900.00">
        <route edges="798234860#0 -1445926304 -1445926303#3 -1445926305#2 -1445926305#1 1445926311"/>
    </vehicle>
    <vehicle id="31" depart="930.00">
        <route edges="-798234860#1 798234860#1 -469966399#6 -469966399#5 -469966399#4 -469966399#3 1445927127 475071113#2 -475071113#6 -475071113#5 1445927128"/>
    </vehicle>
    <vehicle id="32" depart="960.00">
        <route edges="469966400#1 -469966400#1 -469966400#0 -469966399#4 -469966399#3 -469966399#2 475071113#0 1445927130 -469966399#0 469966399#0"/>
    </vehicle>
    <vehicle id="33" depart="990.00">
        <route edges="-1445926309 -1445926305#1 -1445926305#0 -1445926303#0 -469966399#10 -469966399#9 -469966399#8 -469966399#7 -469966399#6 -469966399#5 -469966399#4 -469966399#3 -469966399#2 475071113#0 1445927130 -469966399#0 -1018228073#0"/>
    </vehicle>
    <vehicle id="34" depart="1020.00">
        <route edges="-469966399#12 -469966399#11 -469966399#10 -469966400#4 -469966400#3"/>
    </vehicle>
    <vehicle id="35" depart="1050.00">
        <route edges="-1445926306#0 527232518#1 -469966399#11 -469966399#10 -469966399#9 -469966399#8 -469966399#7 -469966399#6 -469966399#5 -469966399#4 -469966399#3 1445927127 475071113#2 475071113#3"/>
    </vehicle>
    <vehicle id="36" depart="1080.00">
        <route edges="475071113#2 -475071113#2 -1445927127 469966399#3 695769602 469966400#1 695769603 469966400#3 469966400#4 469966399#10 469966399#11 -527232518#1"/>
    </vehicle>
    <vehicle id="37" depart="1110.00">
        <route edges="1445926305#1 1445926305#2 1445926303#3 1445926304 798234860#1 -469966399#6 -469966399#5 -469966399#4 -469966399#3 -469966399#2 475071113#0 1445927130 -469966399#0 1018228073#1"/>
    </vehicle>
    <vehicle id="38" depart="1140.00">
        <route edges="695769583 -695769583 -469966399#5 -469966399#4 -469966399#3 1445927127 475071113#2 -475071113#6 1445926300"/>
    </vehicle>
    <vehicle id="39" depart="1170.00">
        <route edges="-1445927128 475071113#5 475071113#6 -475071113#2 -1445927127 469966399#3 695769602 469966400#1 695769603 469966400#3 469966400#4 -469966399#9"/>
    </vehicle>
    <vehicle id="40" depart="1200.00">
        <route edges="1018228073#0 469966399#0 469966399#1 469966399#2 469966399#3 695769602 469966400#1 695769603 -469966400#2"/>
    </vehicle>
    <vehicle id="41" depart="1230.00">
        <route edges="1018228073#0 469966399#0 469966399#1 469966399#2 469966399#3 469966399#4 469966400#0"/>
    </vehicle>
    <vehicle id="42" depart="1260.00">
        <route edges="-469966399#5 -469966399#4"/>
    </vehicle>
    <vehicle id="43" depart="1290.00">
        <route edges="798234860#1 -798234860#1 -1445926304 1445926303#4"/>
    </vehicle>
    <vehicle id="44" depart="1320.00">
        <route edges="-1445926300 475071113#6 -475071113#2 -475071113#1 1445927130 -469966399#0 -1018228073#0"/>
    </vehicle>
    <vehicle id="45" depart="1350.00">
        <route edges="-1445926303#0 1445926303#0 1445926305#0 1445926311"/>
    </vehicle>
    <vehicle id="46" depart="1380.00">
        <route edges="469966399#13 -469966399#13 -469966399#12 -469966399#11 -469966399#10 -469966399#9 -469966399#8 -469966399#7 -469966399#6 -469966399#5 -469966399#4 -469966399#3 -469966399#2 475071113#0 1445927130 -469966399#0 1018228073#1"/>
    </vehicle>
    <vehicle id="47" depart="1410.00">
        <route edges="-1445926300 475071113#6 -475071113#2 -475071113#1 1445927130 -469966399#0 1018228073#1"/>
    </vehicle>
    <vehicle id="48" depart="1440.00">
        <route edges="798234860#1 -798234860#1 -1445926304 1445926303#4"/>
    </vehicle>
    <vehicle id="49" depart="1470.00">
        <route edges="798234860#0 798234860#1 -469966399#6 -469966399#5 -469966399#4 -469966399#3 -469966399#2 469966399#2"/>
    </vehicle>
    <vehicle id="50" depart="1500.00">
        <route edges="-1018228073#1 469966399#0 469966399#1 475071113#0 1445927130"/>
    </vehicle>
    <vehicle id="51" depart="1530.00">
        <route edges="1445926308#0 -1445926309 1445926305#2 1445926303#3 1445926303#4"/>
    </vehicle>
    <vehicle id="52" depart="1560.00">
        <route edges="-1445927128 475071113#5 475071113#6 -475071113#2 -1445927127 469966399#3 695769602 469966400#1 695769603 469966400#3 469966400#4 469966399#10 1445926303#0 1445926305#0 1445926311"/>
    </vehicle>
    <vehicle id="53" depart="1590.00">
        <route edges="-1445926303#0 -469966399#10 -469966399#9 -469966399#8 -469966399#7 -469966399#6 -469966399#5 -469966399#4 -469966399#3 1445927127 475071113#2 -475071113#6 1445926300"/>
    </vehicle>
    <vehicle id="54" depart="1620.00">
        <route edges="-475071113#0 475071113#0 475071113#1 475071113#2 -475071113#6 475071113#6"/>
    </vehicle>
    <vehicle id="55" depart="1650.00">
        <route edges="475071113#2 -475071113#2 -1445927127 469966399#3 695769602 469966400#1 695769603 469966400#3 -469966400#3"/>
    </vehicle>
    <vehicle id="56" depart="1680.00">
        <route edges="-695769583 -469966399#5 -469966399#4 -469966399#3 -469966399#2 475071113#0 1445927130 -469966399#0"/>
    </vehicle>
    <vehicle id="57" depart="1710.00">
        <route edges="527232518#1 -469966399#11 -469966399#10 -469966399#9 -469966399#8 -469966399#7 -469966399#6 -469966399#5 -469966399#4 469966399#4"/>
    </vehicle>
    <vehicle id="58" depart="1740.00">
        <route edges="-469966399#0 469966399#0 469966399#1 469966399#2 469966399#3 695769602 469966400#1 695769603 469966400#3 469966400#4 469966399#10 1445926303#0 1445926305#0 1445926311"/>
    </vehicle>
    <vehicle id="59" depart="1770.00">
        <route edges="1018228073#0 469966399#0 469966399#1 475071113#0 475071113#1 475071113#2 -475071113#6 -475071113#5 -475071113#4 -1445927129"/>
    </vehicle>
    <vehicle id="60" depart="1800.00">
        <route edges="469966399#0 469966399#1 469966399#2 469966399#3 695769602 469966400#1 695769603 469966400#3 469966400#4 469966399#10 1445926303#0 1445926303#1 1445926303#2 1445926303#3 1445926303#4"/>
    </vehicle>
    <vehicle id="61" depart="1830.00">
        <route edges="469966399#11 -469966399#11 1445926303#0 1445926303#1 1445926303#2 1445926303#3 1445926303#4"/>
    </vehicle>
    <vehicle id="62" depart="1860.00">
        <route edges="-1018228073#1 469966399#0 469966399#1 469966399#2 469966399#3 469966399#4 469966399#5 469966399#6 -798234860#1 -798234860#0"/>
    </vehicle>
    <vehicle id="63" depart="1890.00">
        <route edges="-1018228073#1 469966399#0 469966399#1 475071113#0 475071113#1"/>
    </vehicle>
    <vehicle id="64" depart="1920.00">
        <route edges="475071113#2 -475071113#2 -1445927127 469966399#3 695769602 469966400#1 695769603 469966400#3 469966400#4 469966399#10 469966399#11 469966399#12 469966399#13 469966399#14"/>
    </vehicle>
    <vehicle id="65" depart="1950.00">
        <route edges="-469966399#10 469966399#10 1445926303#0 1445926303#1 -1445926303#1"/>
    </vehicle>
    <vehicle id="66" depart="1980.00">
        <route edges="475071113#2 -475071113#6 -475071113#5 -475071113#4 475071113#4"/>
    </vehicle>
    <vehicle id="67" depart="2010.00">
        <route edges="-1445926300 475071113#6 -475071113#2 -1445927127 469966399#3 695769602 469966400#1 695769603 469966400#3 469966400#4 469966399#10 1445926303#0"/>
    </vehicle>
    <vehicle id="68" depart="2040.00">
        <route edges="-1445926300 475071113#6 -475071113#2 -1445927127 469966399#3 469966399#4 469966399#5 695769583 695769604 1462849220"/>
    </vehicle>
    <vehicle id="69" depart="2070.00">
        <route edges="469966399#0 469966399#1 475071113#0 475071113#1 475071113#2 -475071113#6 -475071113#5 -475071113#4 -1445927129"/>
    </vehicle>
    <vehicle id="70" depart="2100.00">
        <route edges="-475071113#4 475071113#4 475071113#5 475071113#6 -475071113#2 -1445927127 469966399#3 695769602 469966400#1 695769603 469966400#3 469966400#4 469966399#10 1445926303#0 1445926303#1 1445926303#2 1445926303#3 1445926303#4"/>
    </vehicle>
    <vehicle id="71" depart="2130.00">
        <route edges="-1445927128 475071113#5 475071113#6 -475071113#2 -1445927127 469966399#3 469966399#4 469966399#5"/>
    </vehicle>
    <vehicle id="72" depart="2160.00">
        <route edges="-469966399#9 -469966399#8 -469966399#7 -469966399#6 -469966399#5 -469966399#4 -469966399#3"/>
    </vehicle>
    <vehicle id="73" depart="2190.00">
        <route edges="-695769583 695769583 695769604 1462849220"/>
    </vehicle>
    <vehicle id="74" depart="2220.00">
        <route edges="-1445926305#2 -1445926305#1 -1445926305#0 -1445926303#0 469966399#11 -527232518#1 -527232518#0"/>
    </vehicle>
    <vehicle id="75" depart="2250.00">
        <route edges="798234860#1 469966399#7 1445926302 -1445926303#1 1445926305#0 1445926311"/>
    </vehicle>
    <vehicle id="76" depart="2280.00">
        <route edges="-469966400#2 695769603 469966400#3 469966400#4 469966399#10 1445926303#0 1445926303#1 1445926303#2 1445926303#3 1445926303#4"/>
    </vehicle>
    <vehicle id="77" depart="2310.00">
        <route edges="-1445926303#2 -1445926303#1 -1445926303#0 -469966399#10 -469966399#9 -469966399#8 -469966399#7 -469966399#6 -469966399#5"/>
    </vehicle>
    <vehicle id="78" depart="2340.00">
        <route edges="-469966399#14 -469966399#13 -469966399#12 -527232518#1 -527232518#0 -1445926306#1 1445926307"/>
    </vehicle>
    <vehicle id="79" depart="2370.00">
        <route edges="-1445926309 -1445926305#1 -1445926305#0 -1445926303#0 -469966399#10 -469966399#9 -469966399#8 -469966399#7 -469966399#6 -469966399#5 -469966399#4"/>
    </vehicle>
    <vehicle id="80" depart="2400.00">
        <route edges="-1445926300 475071113#6 -475071113#2 -1445927127 469966399#3 695769602 469966400#1 695769603 469966400#3 469966400#4 469966399#10 1445926303#0 1445926305#0 1445926311"/>
    </vehicle>
    <vehicle id="81" depart="2430.00">
        <route edges="-1445926309 -1445926305#1 -1445926305#0 -1445926303#0 -469966399#10 -469966400#4 -469966400#3 -469966400#2 -469966400#1 469966400#1"/>
    </vehicle>
    <vehicle id="82" depart="2460.00">
        <route edges="469966400#4 469966399#10 1445926303#0 1445926303#1 1445926303#2 1445926303#3 -1445926303#3"/>
    </vehicle>
    <vehicle id="83" depart="2490.00">
        <route edges="-1445927127 1445927127 475071113#2 -475071113#6 -475071113#5 1445927128"/>
    </vehicle>
    <vehicle id="84" depart="2520.00">
        <route edges="-1445926306#1 -1445926306#0 527232518#1 -469966399#11 -469966399#10 -469966399#9 -469966399#8 -469966399#7 -469966399#6 -469966399#5 -469966399#4 -469966399#3 1445927127 475071113#2 -475071113#6 -475071113#5 -475071113#4 -1445927129"/>
    </vehicle>
    <vehicle id="85" depart="2550.00">
        <route edges="695769605 -469966399#12 -469966399#11 1445926303#0 1445926305#0 1445926305#1"/>
    </vehicle>
    <vehicle id="86" depart="2580.00">
        <route edges="-475071113#3 -475071113#2 -1445927127 469966399#3 695769602 469966400#1 695769603 469966400#3 469966400#4 469966399#10"/>
    </vehicle>
    <vehicle id="87" depart="2610.00">
        <route edges="469966399#4 469966399#5 695769583 695769604 469966399#9 469966399#10 -469966399#10"/>
    </vehicle>
    <vehicle id="88" depart="2640.00">
        <route edges="-1445926300 1445926300"/>
    </vehicle>
    <vehicle id="89" depart="2670.00">
        <route edges="-469966399#9 -469966399#8 -469966399#7 -469966399#6 -469966399#5 -469966399#4 -469966399#3 1445927127 475071113#2 -475071113#6 1445926300"/>
    </vehicle>
    <vehicle id="90" depart="2700.00">
        <route edges="1445927129 475071113#4 1445927128"/>
    </vehicle>
    <vehicle id="91" depart="2730.00">
        <route edges="798234860#0 -1445926304 -1445926303#3 -1445926303#2 -1445926303#1 -1445926303#0 469966399#11 -527232518#1 -527232518#0 -1445926306#1"/>
    </vehicle>
    <vehicle id="92" depart="2760.00">
        <route edges="-469966399#6 469966399#6 -798234860#1 -798234860#0"/>
    </vehicle>
    <vehicle id="93" depart="2790.00">
        <route edges="469966400#4 -469966400#4 -469966400#3 -469966400#2 -469966400#1 -469966400#0"/>
    </vehicle>
    <vehicle id="94" depart="2820.00">
        <route edges="-1445926304 1445926304 798234860#1 -469966399#6 -469966399#5 -469966399#4 -469966399#3 1445927127 475071113#2 -475071113#6 1445926300"/>
    </vehicle>
    <vehicle id="95" depart="2850.00">
        <route edges="-469966399#9 -469966399#8 -469966399#7 -469966399#6 -469966399#5 -469966399#4 -469966399#3 1445927127 -475071113#1"/>
    </vehicle>
    <vehicle id="96" depart="2880.00">
        <route edges="-1445927128 475071113#5 475071113#6 -475071113#2 -475071113#1 -475071113#0 475071113#0"/>
    </vehicle>
    <vehicle id="97" depart="2910.00">
        <route edges="-469966400#3 -469966400#2 -469966400#1 -469966400#0 -469966399#4 -469966399#3 469966399#3"/>
    </vehicle>
    <vehicle id="98" depart="2940.00">
        <route edges="-695769583 -469966399#5 -469966399#4 -469966399#3 -469966399#2 475071113#0 1445927130 -469966399#0 -1018228073#0"/>
    </vehicle>
    <vehicle id="99" depart="2970.00">
        <route edges="798234860#1 469966399#7 469966399#8 469966399#9 469966399#10 469966399#11 469966399#12 469966399#13 469966399#14"/>
    </vehicle>
    <vehicle id="100" depart="3000.00">
        <route edges="798234860#0 798234860#1 -469966399#6 -469966399#5 -469966399#4 -469966399#3 -469966399#2 475071113#0"/>
    </vehicle>
    <vehicle id="101" depart="3030.00">
        <route edges="469966400#2 -469966400#2 -469966400#1 -469966400#0 -469966399#4 -469966399#3 1445927127 475071113#2 -475071113#6 -475071113#5 -475071113#4 -1445927129"/>
    </vehicle>
    <vehicle id="102" depart="3060.00">
        <route edges="-475071113#6 475071113#6 -475071113#2 -1445927127 469966399#3 -469966399#3"/>
    </vehicle>
    <vehicle id="103" depart="3090.00">
        <route edges="-469966399#5 469966399#5 695769583 695769604 -469966399#8 1445926302 -1445926303#1"/>
    </vehicle>
    <vehicle id="104" depart="3120.00">
        <route edges="-469966399#14 -469966399#13 -469966399#12 -469966399#11 -469966399#10 -469966399#9 -469966399#8 -469966399#7 -469966399#6 695769583 695769604"/>
    </vehicle>
    <vehicle id="105" depart="3150.00">
        <route edges="-1445927128 475071113#5 475071113#6 -475071113#2 -1445927127 469966399#3 695769602 469966400#1 695769603 469966400#3 469966400#4 469966399#10"/>
    </vehicle>
    <vehicle id="106" depart="3180.00">
        <route edges="-475071113#0 475071113#0 1445927130 -469966399#0 1018228073#1"/>
    </vehicle>
    <vehicle id="107" depart="3210.00">
        <route edges="798234860#0 798234860#1"/>
    </vehicle>
    <vehicle id="108" depart="3240.00">
        <route edges="-798234860#1 798234860#1 -469966399#6 -469966399#5 -469966399#4 -469966399#3 -469966399#2 475071113#0 1445927130"/>
    </vehicle>
    <vehicle id="109" depart="3270.00">
        <route edges="-1445926303#4 1445926304 798234860#1 -469966399#6 -469966399#5 -469966399#4 -469966399#3 1445927127 475071113#2 -475071113#6 -475071113#5 -475071113#4"/>
    </vehicle>
    <vehicle id="110" depart="3300.00">
        <route edges="798234860#0 -1445926304 -1445926303#3 -1445926303#2 -1445926303#1 -1445926303#0 469966399#11 -527232518#1 1445926306#0"/>
    </vehicle>
    <vehicle id="111" depart="3330.00">
        <route edges="-695769583 695769583 695769604 1462849220"/>
    </vehicle>
    <vehicle id="112" depart="3360.00">
        <route edges="-1445926300 475071113#6 -475071113#2 -1445927127 469966399#3 695769602 469966400#1 695769603 469966400#3 469966400#4 469966399#10 469966399#11 -527232518#1 1445926306#0 1445926306#1"/>
    </vehicle>
    <vehicle id="113" depart="3390.00">
        <route edges="-695769583 695769583 695769604 469966399#9 469966399#10 469966399#11 469966399#12 469966399#13 469966399#14"/>
    </vehicle>
    <vehicle id="114" depart="3420.00">
        <route edges="-1445926303#4 -1445926303#3 -1445926303#2 -1445926303#1 -1445926303#0 469966399#11 -527232518#1 1445926306#0 1445926306#1 527232518#0"/>
    </vehicle>
    <vehicle id="115" depart="3450.00">
        <route edges="-1445926300 475071113#6 -475071113#2 -1445927127 469966399#3 695769602 469966400#1 695769603 469966400#3 469966400#4 469966399#10 -469966399#10"/>
    </vehicle>
    <vehicle id="116" depart="3480.00">
        <route edges="1018228073#0 469966399#0 469966399#1 475071113#0 475071113#1 475071113#2 -475071113#6 -475071113#5 1445927128"/>
    </vehicle>
    <vehicle id="117" depart="3510.00">
        <route edges="-1445927127"/>
    </vehicle>
    <vehicle id="118" depart="3540.00">
        <route edges="475071113#4 475071113#5 475071113#6 -475071113#2 -1445927127 469966399#3 695769602 469966400#1 695769603 469966400#3 469966400#4 -469966399#9"/>
    </vehicle>
    <vehicle id="119" depart="3570.00">
        <route edges="1018228073#0 469966399#0 469966399#1 469966399#2 469966399#3 695769602 469966400#1 695769603 469966400#3 469966400#4 469966399#10 1445926303#0 1445926305#0 1445926311"/>
    </vehicle>
    <vehicle id="120" depart="3600.00">
        <route edges="-469966399#9 469966399#9 469966399#10 469966399#11 -527232518#1 1445926306#0 1445926306#1"/>
    </vehicle>
    <vehicle id="121" depart="3630.00">
        <route edges="-695769583 -469966399#5 -469966399#4 -469966399#3 1445927127 475071113#2"/>
    </vehicle>
    <vehicle id="122" depart="3660.00">
        <route edges="-1445926305#2 -1445926305#1 -1445926305#0 -1445926303#0 -469966399#10 -469966399#9 -469966399#8 -469966399#7 -469966399#6 -469966399#5 -469966399#4 -469966399#3 1445927127 475071113#2 -475071113#6 -475071113#5 1445927128"/>
    </vehicle>
    <vehicle id="123" depart="3690.00">
        <route edges="-1445927127 -469966399#2 475071113#0 1445927130 -469966399#0 1018228073#1"/>
    </vehicle>
    <vehicle id="124" depart="3720.00">
        <route edges="1445926306#1 527232518#0 527232518#1 -469966399#11 -469966399#10 -469966399#9 -469966399#8 -469966399#7 -469966399#6 -469966399#5 -469966399#4 -469966399#3 1445927127 475071113#2 -475071113#6 -475071113#5"/>
    </vehicle>
    <vehicle id="125" depart="3750.00">
        <route edges="-469966399#12 -469966399#11 -469966399#10 -469966399#9 1462849220"/>
    </vehicle>
    <vehicle id="126" depart="3780.00">
        <route edges="-1445926300 1445926300"/>
    </vehicle>
    <vehicle id="127" depart="3810.00">
        <route edges="798234860#1"/>
    </vehicle>
    <vehicle id="128" depart="3840.00">
        <route edges="-1445926300 475071113#6 -475071113#2 -1445927127 469966399#3 -469966399#3"/>
    </vehicle>
    <vehicle id="129" depart="3870.00">
        <route edges="-1445927128 475071113#5 475071113#6 -475071113#2 475071113#2"/>
    </vehicle>
    <vehicle id="130" depart="3900.00">
        <route edges="475071113#3 475071113#4 475071113#5 475071113#6 -475071113#2 -1445927127 469966399#3 469966399#4 469966399#5 469966399#6"/>
    </vehicle>
    <vehicle id="131" depart="3930.00">
        <route edges="-469966399#14 -469966399#13 -469966399#12 -469966399#11 -469966399#10 -469966399#9 -469966399#8 -469966399#7 -469966399#6 -469966399#5 -469966399#4 -469966399#3 1445927127 475071113#2 -475071113#6 -475071113#5 -475071113#4 -1445927129"/>
    </vehicle>
    <vehicle id="132" depart="3960.00">
        <route edges="469966399#9 -469966399#9 -469966399#8 -469966399#7 -469966399#6 -469966399#5 -469966399#4 -469966399#3 1445927127 475071113#2 -475071113#6 -475071113#5 1445927128"/>
    </vehicle>
    <vehicle id="133" depart="3990.00">
        <route edges="1018228073#0 469966399#0 469966399#1 469966399#2 469966399#3 469966399#4 469966399#5 695769583 695769604"/>
    </vehicle>
    <vehicle id="134" depart="4020.00">
        <route edges="1445926305#1 1445926305#2 1445926303#3 1445926304 798234860#1 -469966399#6 -469966399#5 -469966399#4 -469966399#3 -469966399#2 475071113#0 1445927130 -469966399#0 -1018228073#0"/>
    </vehicle>
    <vehicle id="135" depart="4050.00">
        <route edges="469966399#6 -469966399#6 -469966399#5 -469966399#4 -469966399#3 1445927127 475071113#2 -475071113#6 -475071113#5"/>
    </vehicle>
    <vehicle id="136" depart="4080.00">
        <route edges="1445926306#0 1445926306#1 527232518#0 527232518#1 -469966399#11 -469966399#10 -469966399#9 -469966399#8 -469966399#7 -469966399#6 -469966399#5 -469966399#4 -469966399#3 1445927127 475071113#2 475071113#3"/>
    </vehicle>
    <vehicle id="137" depart="4110.00">
        <route edges="-1445926303#4 -1445926303#3 -1445926305#2 1445926308#0 -1445926309"/>
    </vehicle>
    <vehicle id="138" depart="4140.00">
        <route edges="-1445926300 475071113#6 -475071113#2 -1445927127 469966399#3 695769602 469966400#1 695769603 469966400#3 469966400#4 469966399#10 1445926303#0 1445926303#1 1445926303#2 1445926303#3 1445926303#4"/>
    </vehicle>
    <vehicle id="139" depart="4170.00">
        <route edges="-1445927128 475071113#5 475071113#6 -475071113#2 -1445927127 469966399#3 695769602 469966400#1 695769603 469966400#3 469966400#4 469966399#10 1445926303#0 1445926305#0 1445926305#1 1445926309"/>
    </vehicle>
    <vehicle id="140" depart="4200.00">
        <route edges="1445927129 475071113#4 475071113#5 475071113#6 -475071113#2 -1445927127 469966399#3 695769602 469966400#1 695769603 469966400#3 469966400#4 469966399#10 469966399#11 469966399#12 469966399#13 -469966399#13"/>
    </vehicle>
    <vehicle id="141" depart="4230.00">
        <route edges="1445926303#2 -1445926305#2 -1445926305#1 -1445926305#0 -1445926303#0 -469966399#10 -469966400#4 -469966400#3"/>
    </vehicle>
    <vehicle id="142" depart="4260.00">
        <route edges="-475071113#6 475071113#6 -475071113#2 -1445927127 469966399#3 695769602 469966400#1"/>
    </vehicle>
    <vehicle id="143" depart="4290.00">
        <route edges="469966400#1 695769603 469966400#3 469966400#4 469966399#10 1445926303#0 1445926303#1 1445926303#2 -1445926305#2"/>
    </vehicle>
    <vehicle id="144" depart="4320.00">
        <route edges="-469966399#9 -469966399#8 -469966399#7 -469966399#6 -469966399#5 -469966399#4 -469966399#3 -469966399#2 475071113#0 -475071113#0"/>
    </vehicle>
    <vehicle id="145" depart="4350.00">
        <route edges="-1018228073#1 469966399#0 469966399#1 469966399#2 469966399#3 469966399#4 469966399#5 695769583 695769604 1462849220"/>
    </vehicle>
    <vehicle id="146" depart="4380.00">
        <route edges="1445926303#3 -1445926303#3 -1445926303#2 -1445926303#1 -1445926303#0 -469966399#10 -469966400#4 -469966400#3 -469966400#2"/>
    </vehicle>
    <vehicle id="147" depart="4410.00">
        <route edges="1445927129 475071113#4 475071113#5 475071113#6 -475071113#2 -1445927127 469966399#3 695769602 469966400#1 695769603 469966400#3 469966400#4 469966399#10 1445926303#0 1445926303#1 1445926303#2 1445926303#3 1445926303#4"/>
    </vehicle>
    <vehicle id="148" depart="4440.00">
        <route edges="-469966400#0 -469966399#4 -469966399#3 -469966399#2 475071113#0 1445927130 -469966399#0 -1018228073#0"/>
    </vehicle>
    <vehicle id="149" depart="4470.00">
        <route edges="-1445926300 475071113#6 -475071113#2 -1445927127 469966399#3 469966399#4 469966399#5 469966399#6 469966399#7"/>
    </vehicle>
    <vehicle id="150" depart="4500.00">
        <route edges="527232518#0 527232518#1 -469966399#11 1445926303#0 1445926303#1 1445926303#2 1445926303#3 1445926303#4"/>
    </vehicle>
    <vehicle id="151" depart="4530.00">
        <route edges="469966399#9 469966399#10 469966399#11 -527232518#1 1445926306#0 1445926306#1"/>
    </vehicle>
    <vehicle id="152" depart="4560.00">
        <route edges="-1445926303#4 1445926304 798234860#1 -469966399#6 -469966399#5 -469966399#4 -469966399#3 1445927127 475071113#2 -475071113#6 -475071113#5 -475071113#4 -1445927129"/>
    </vehicle>