<configuration>
    <input>
        <net-file value="map.net.xml"/>
        
        <route-files value="routes_new.rou.xml"/>
    </input>
    <time>
        <begin value="0"/>
        <end value="11000"/>
    </time>
</configuration>