<?xml version="1.0" encoding="UTF-8"?>

<!-- generated on 2026-04-09 04:03:42.214464 by Eclipse SUMO randomTrips.py v1_26_0+0000-fa7df22d7f1
<configuration>
    <net-file value="map.net.xml"/>
    <output-trip-file value="trips_new.trips.xml"/>
    <fringe-factor value="10"/>
    <end value="10000.0"/>
    <period value="30.0"/>
</configuration>
-->

<routes xmlns:xsi="http://www.w3.org/2001/XMLSchema-instance" xsi:noNamespaceSchemaLocation="http://sumo.dlr.de/xsd/routes_file.xsd">
    <trip id="0" depart="0.00" from="1445926303#3" to="-1018228073#0"/>
    <trip id="1" depart="30.00" from="-1445927128" to="-469966399#5"/>
    <trip id="2" depart="60.00" from="1445927129" to="1445927128"/>
    <trip id="3" depart="90.00" from="475071113#5" to="-1445926305#1"/>
    <trip id="4" depart="120.00" from="-469966399#9" to="-1018228073#0"/>
    <trip id="5" depart="150.00" from="-1445926308#0" to="1445926303#4"/>
    <trip id="6" depart="180.00" from="-1018228073#1" to="-469966399#12"/>
    <trip id="7" depart="210.00" from="1445926305#0" to="1445926303#4"/>
    <trip id="8" depart="240.00" from="-1445926308#0" to="1445926307"/>
    <trip id="9" depart="270.00" from="469966399#4" to="-1018228073#0"/>
    <trip id="10" depart="300.00" from="469966399#4" to="1445927128"/>
    <trip id="11" depart="330.00" from="-469966399#14" to="-1445927129"/>
    <trip id="12" depart="360.00" from="798234860#0" to="-798234860#0"/>
    <trip id="13" depart="390.00" from="-1445926300" to="-1445926306#0"/>
    <trip id="14" depart="420.00" from="469966400#1" to="1445926309"/>
    <trip id="15" depart="450.00" from="469966399#4" to="1462849220"/>
    <trip id="16" depart="480.00" from="-695769583" to="695769583"/>
    <trip id="17" depart="510.00" from="-469966399#14" to="1445926303#4"/>
    <trip id="18" depart="540.00" from="469966399#8" to="1445926311"/>
    <trip id="19" depart="570.00" from="469966400#4" to="1445926306#0"/>
    <trip id="20" depart="600.00" from="1445927129" to="-1018228073#0"/>
    <trip id="21" depart="630.00" from="-1445926308#1" to="-475071113#3"/>
    <trip id="22" depart="660.00" from="-1445926300" to="-469966399#7"/>
    <trip id="23" depart="690.00" from="-1445926300" to="-475071113#0"/>
    <trip id="24" depart="720.00" from="1445926303#2" to="-798234860#0"/>
    <trip id="25" depart="750.00" from="-469966399#14" to="-469966399#2"/>
    <trip id="26" depart="780.00" from="-1445927128" to="475071113#2"/>
    <trip id="27" depart="810.00" from="1445926305#0" to="1445926311"/>
    <trip id="28" depart="840.00" from="-1445926303#4" to="1462849220"/>
    <trip id="29" depart="870.00" from="-1445926303#4" to="1018228073#1"/>
    <trip id="30" depart="900.00" from="798234860#0" to="1445926311"/>
    <trip id="31" depart="930.00" from="-798234860#1" to="1445927128"/>
    <trip id="32" depart="960.00" from="469966400#1" to="469966399#0"/>
    <trip id="33" depart="990.00" from="-1445926309" to="-1018228073#0"/>
    <trip id="34" depart="1020.00" from="-469966399#12" to="-469966400#3"/>
    <trip id="35" depart="1050.00" from="-1445926306#0" to="475071113#3"/>
    <trip id="36" depart="1080.00" from="475071113#2" to="-527232518#1"/>
    <trip id="37" depart="1110.00" from="1445926305#1" to="1018228073#1"/>
    <trip id="38" depart="1140.00" from="695769583" to="1445926300"/>
    <trip id="39" depart="1170.00" from="-1445927128" to="-469966399#9"/>
    <trip id="40" depart="1200.00" from="1018228073#0" to="-469966400#2"/>
    <trip id="41" depart="1230.00" from="1018228073#0" to="469966400#0"/>
    <trip id="42" depart="1260.00" from="-469966399#5" to="-469966399#4"/>
    <trip id="43" depart="1290.00" from="798234860#1" to="1445926303#4"/>
    <trip id="44" depart="1320.00" from="-1445926300" to="-1018228073#0"/>
    <trip id="45" depart="1350.00" from="-1445926303#0" to="1445926311"/>
    <trip id="46" depart="1380.00" from="469966399#13" to="1018228073#1"/>
    <trip id="47" depart="1410.00" from="-1445926300" to="1018228073#1"/>
    <trip id="48" depart="1440.00" from="798234860#1" to="1445926303#4"/>
    <trip id="49" depart="1470.00" from="798234860#0" to="469966399#2"/>
    <trip id="50" depart="1500.00" from="-1018228073#1" to="1445927130"/>
    <trip id="51" depart="1530.00" from="1445926308#0" to="1445926303#4"/>
    <trip id="52" depart="1560.00" from="-1445927128" to="1445926311"/>
    <trip id="53" depart="1590.00" from="-1445926303#0" to="1445926300"/>
    <trip id="54" depart="1620.00" from="-475071113#0" to="475071113#6"/>
    <trip id="55" depart="1650.00" from="475071113#2" to="-469966400#3"/>
    <trip id="56" depart="1680.00" from="-695769583" to="-469966399#0"/>
    <trip id="57" depart="1710.00" from="527232518#1" to="469966399#4"/>
    <trip id="58" depart="1740.00" from="-469966399#0" to="1445926311"/>
    <trip id="59" depart="1770.00" from="1018228073#0" to="-1445927129"/>
    <trip id="60" depart="1800.00" from="469966399#0" to="1445926303#4"/>
    <trip id="61" depart="1830.00" from="469966399#11" to="1445926303#4"/>
    <trip id="62" depart="1860.00" from="-1018228073#1" to="-798234860#0"/>
    <trip id="63" depart="1890.00" from="-1018228073#1" to="475071113#1"/>
    <trip id="64" depart="1920.00" from="475071113#2" to="469966399#14"/>
    <trip id="65" depart="1950.00" from="-469966399#10" to="-1445926303#1"/>
    <trip id="66" depart="1980.00" from="475071113#2" to="475071113#4"/>
    <trip id="67" depart="2010.00" from="-1445926300" to="1445926303#0"/>
    <trip id="68" depart="2040.00" from="-1445926300" to="1462849220"/>
    <trip id="69" depart="2070.00" from="469966399#0" to="-1445927129"/>
    <trip id="70" depart="2100.00" from="-475071113#4" to="1445926303#4"/>
    <trip id="71" depart="2130.00" from="-1445927128" to="469966399#5"/>
    <trip id="72" depart="2160.00" from="-469966399#9" to="-469966399#3"/>
    <trip id="73" depart="2190.00" from="-695769583" to="1462849220"/>
    <trip id="74" depart="2220.00" from="-1445926305#2" to="-527232518#0"/>
    <trip id="75" depart="2250.00" from="798234860#1" to="1445926311"/>
    <trip id="76" depart="2280.00" from="-469966400#2" to="1445926303#4"/>
    <trip id="77" depart="2310.00" from="-1445926303#2" to="-469966399#5"/>
    <trip id="78" depart="2340.00" from="-469966399#14" to="1445926307"/>
    <trip id="79" depart="2370.00" from="-1445926309" to="-469966399#4"/>
    <trip id="80" depart="2400.00" from="-1445926300" to="1445926311"/>
    <trip id="81" depart="2430.00" from="-1445926309" to="469966400#1"/>
    <trip id="82" depart="2460.00" from="469966400#4" to="-1445926303#3"/>
    <trip id="83" depart="2490.00" from="-1445927127" to="1445927128"/>
    <trip id="84" depart="2520.00" from="-1445926306#1" to="-1445927129"/>
    <trip id="85" depart="2550.00" from="695769605" to="1445926305#1"/>
    <trip id="86" depart="2580.00" from="-475071113#3" to="469966399#10"/>
    <trip id="87" depart="2610.00" from="469966399#4" to="-469966399#10"/>
    <trip id="88" depart="2640.00" from="-1445926300" to="1445926300"/>
    <trip id="89" depart="2670.00" from="-469966399#9" to="1445926300"/>
    <trip id="90" depart="2700.00" from="1445927129" to="1445927128"/>
    <trip id="91" depart="2730.00" from="798234860#0" to="-1445926306#1"/>
    <trip id="92" depart="2760.00" from="-469966399#6" to="-798234860#0"/>
    <trip id="93" depart="2790.00" from="469966400#4" to="-469966400#0"/>
    <trip id="94" depart="2820.00" from="-1445926304" to="1445926300"/>
    <trip id="95" depart="2850.00" from="-469966399#9" to="-475071113#1"/>
    <trip id="96" depart="2880.00" from="-1445927128" to="475071113#0"/>
    <trip id="97" depart="2910.00" from="-469966400#3" to="469966399#3"/>
    <trip id="98" depart="2940.00" from="-695769583" to="-1018228073#0"/>
    <trip id="99" depart="2970.00" from="798234860#1" to="469966399#14"/>
    <trip id="100" depart="3000.00" from="798234860#0" to="475071113#0"/>
    <trip id="101" depart="3030.00" from="469966400#2" to="-1445927129"/>
    <trip id="102" depart="3060.00" from="-475071113#6" to="-469966399#3"/>
    <trip id="103" depart="3090.00" from="-469966399#5" to="-1445926303#1"/>
    <trip id="104" depart="3120.00" from="-469966399#14" to="695769604"/>
    <trip id="105" depart="3150.00" from="-1445927128" to="469966399#10"/>
    <trip id="106" depart="3180.00" from="-475071113#0" to="1018228073#1"/>
    <trip id="107" depart="3210.00" from="798234860#0" to="798234860#1"/>
    <trip id="108" depart="3240.00" from="-798234860#1" to="1445927130"/>
    <trip id="109" depart="3270.00" from="-1445926303#4" to="-475071113#4"/>
    <trip id="110" depart="3300.00" from="798234860#0" to="1445926306#0"/>
    <trip id="111" depart="3330.00" from="-695769583" to="1462849220"/>
    <trip id="112" depart="3360.00" from="-1445926300" to="1445926306#1"/>
    <trip id="113" depart="3390.00" from="-695769583" to="469966399#14"/>
    <trip id="114" depart="3420.00" from="-1445926303#4" to="527232518#0"/>
    <trip id="115" depart="3450.00" from="-1445926300" to="-469966399#10"/>
    <trip id="116" depart="3480.00" from="1018228073#0" to="1445927128"/>
    <trip id="117" depart="3510.00" from="-1445927127" to="-1445927127"/>
    <trip id="118" depart="3540.00" from="475071113#4" to="-469966399#9"/>
    <trip id="119" depart="3570.00" from="1018228073#0" to="1445926311"/>
    <trip id="120" depart="3600.00" from="-469966399#9" to="1445926306#1"/>
    <trip id="121" depart="3630.00" from="-695769583" to="475071113#2"/>
    <trip id="122" depart="3660.00" from="-1445926305#2" to="1445927128"/>
    <trip id="123" depart="3690.00" from="-1445927127" to="1018228073#1"/>
    <trip id="124" depart="3720.00" from="1445926306#1" to="-475071113#5"/>
    <trip id="125" depart="3750.00" from="-469966399#12" to="1462849220"/>
    <trip id="126" depart="3780.00" from="-1445926300" to="1445926300"/>
    <trip id="127" depart="3810.00" from="798234860#1" to="798234860#1"/>
    <trip id="128" depart="3840.00" from="-1445926300" to="-469966399#3"/>
    <trip id="129" depart="3870.00" from="-1445927128" to="475071113#2"/>
    <trip id="130" depart="3900.00" from="475071113#3" to="469966399#6"/>
    <trip id="131" depart="3930.00" from="-469966399#14" to="-1445927129"/>
    <trip id="132" depart="3960.00" from="469966399#9" to="1445927128"/>
    <trip id="133" depart="3990.00" from="1018228073#0" to="695769604"/>
    <trip id="134" depart="4020.00" from="1445926305#1" to="-1018228073#0"/>
    <trip id="135" depart="4050.00" from="469966399#6" to="-475071113#5"/>
    <trip id="136" depart="4080.00" from="1445926306#0" to="475071113#3"/>
    <trip id="137" depart="4110.00" from="-1445926303#4" to="-1445926309"/>
    <trip id="138" depart="4140.00" from="-1445926300" to="1445926303#4"/>
    <trip id="139" depart="4170.00" from="-1445927128" to="1445926309"/>
    <trip id="140" depart="4200.00" from="1445927129" to="-469966399#13"/>
    <trip id="141" depart="4230.00" from="1445926303#2" to="-469966400#3"/>
    <trip id="142" depart="4260.00" from="-475071113#6" to="469966400#1"/>
    <trip id="143" depart="4290.00" from="469966400#1" to="-1445926305#2"/>
    <trip id="144" depart="4320.00" from="-469966399#9" to="-475071113#0"/>
    <trip id="145" depart="4350.00" from="-1018228073#1" to="1462849220"/>
    <trip id="146" depart="4380.00" from="1445926303#3" to="-469966400#2"/>
    <trip id="147" depart="4410.00" from="1445927129" to="1445926303#4"/>
    <trip id="148" depart="4440.00" from="-469966400#0" to="-1018228073#0"/>
    <trip id="149" depart="4470.00" from="-1445926300" to="469966399#7"/>
    <trip id="150" depart="4500.00" from="527232518#0" to="1445926303#4"/>
    <trip id="151" depart="4530.00" from="469966399#9" to="1445926306#1"/>
    <trip id="152" depart="4560.00" from="-1445926303#4" to="-1445927129"/>
    <trip id="153" depart="4590.00" from="-469966399#10" to="469966400#0"/>
    <trip id="154" depart="4620.00" from="469966399#2" to="469966399#2"/>
    <trip id="155" depart="4650.00" from="475071113#6" to="-469966399#2"/>
    <trip id="156" depart="4680.00" from="-1445927128" to="-1445926306#1"/>
    <trip id="157" depart="4710.00" from="469966399#11" to="469966399#7"/>
    <trip id="158" depart="4740.00" from="-469966399#6" to="1445926311"/>
    <trip id="159" depart="4770.00" from="-1445926303#4" to="475071113#1"/>
    <trip id="160" depart="4800.00" from="475071113#0" to="695769602"/>
    <trip id="161" depart="4830.00" from="469966399#5" to="469966399#6"/>
    <trip id="162" depart="4860.00" from="-1018228073#1" to="1462849220"/>
    <trip id="163" depart="4890.00" from="-469966399#14" to="475071113#1"/>
    <trip id="164" depart="4920.00" from="469966399#3" to="469966399#3"/>
    <trip id="165" depart="4950.00" from="469966399#5" to="-469966400#3"/>
    <trip id="166" depart="4980.00" from="469966399#12" to="-1445926308#0"/>
    <trip id="167" depart="5010.00" from="475071113#1" to="469966399#2"/>
    <trip id="168" depart="5040.00" from="-1445926308#0" to="469966399#14"/>
    <trip id="169" depart="5070.00" from="-475071113#1" to="-475071113#6"/>
    <trip id="170" depart="5100.00" from="469966399#2" to="-469966399#6"/>
    <trip id="171" depart="5130.00" from="-1018228073#1" to="-469966399#11"/>
    <trip id="172" depart="5160.00" from="-469966399#14" to="469966399#3"/>
    <trip id="173" depart="5190.00" from="798234860#0" to="-475071113#1"/>
    <trip id="174" depart="5220.00" from="1445926304" to="1018228073#1"/>
    <trip id="175" depart="5250.00" from="798234860#0" to="1445926303#4"/>
    <trip id="176" depart="5280.00" from="695769605" to="-1445926309"/>
    <trip id="177" depart="5310.00" from="798234860#0" to="-469966399#0"/>
    <trip id="178" depart="5340.00" from="798234860#0" to="-469966400#3"/>
    <trip id="179" depart="5370.00" from="-1445926300" to="1445926300"/>
    <trip id="180" depart="5400.00" from="1445927129" to="-527232518#0"/>
    <trip id="181" depart="5430.00" from="1018228073#0" to="1445926303#4"/>
    <trip id="182" depart="5460.00" from="-469966399#2" to="1445926305#2"/>
    <trip id="183" depart="5490.00" from="-1445927128" to="1445927128"/>
    <trip id="184" depart="5520.00" from="-1018228073#1" to="475071113#0"/>
    <trip id="185" depart="5550.00" from="-695769583" to="1445927130"/>
    <trip id="186" depart="5580.00" from="1445927129" to="1445927128"/>
    <trip id="187" depart="5610.00" from="-469966399#14" to="-1445926303#3"/>
    <trip id="188" depart="5640.00" from="1445926306#0" to="-798234860#0"/>
    <trip id="189" depart="5670.00" from="-469966399#11" to="469966399#14"/>
    <trip id="190" depart="5700.00" from="1445927129" to="-475071113#5"/>
    <trip id="191" depart="5730.00" from="-469966399#10" to="1018228073#1"/>
    <trip id="192" depart="5760.00" from="-469966399#6" to="-475071113#4"/>
    <trip id="193" depart="5790.00" from="-1445926303#3" to="1018228073#1"/>
    <trip id="194" depart="5820.00" from="798234860#0" to="1445927128"/>
    <trip id="195" depart="5850.00" from="527232518#0" to="1445926311"/>
    <trip id="196" depart="5880.00" from="-469966399#1" to="1445926303#4"/>
    <trip id="197" depart="5910.00" from="-1018228073#1" to="-475071113#2"/>
    <trip id="198" depart="5940.00" from="-469966400#1" to="1445926306#0"/>
    <trip id="199" depart="5970.00" from="1445926305#1" to="1445926300"/>
    <trip id="200" depart="6000.00" from="-469966400#3" to="-469966399#3"/>
    <trip id="201" depart="6030.00" from="-475071113#4" to="469966400#0"/>
    <trip id="202" depart="6060.00" from="469966399#2" to="-1445927129"/>
    <trip id="203" depart="6090.00" from="-1445926300" to="1445926303#4"/>
    <trip id="204" depart="6120.00" from="1445926303#2" to="-798234860#0"/>
    <trip id="205" depart="6150.00" from="469966399#6" to="1462849220"/>
    <trip id="206" depart="6180.00" from="1445926306#1" to="-469966399#5"/>
    <trip id="207" depart="6210.00" from="-1445926305#1" to="-1018228073#0"/>
    <trip id="208" depart="6240.00" from="-1445927128" to="1445926300"/>
    <trip id="209" depart="6270.00" from="469966400#2" to="-1445926304"/>
    <trip id="210" depart="6300.00" from="-469966399#8" to="1445926311"/>
    <trip id="211" depart="6330.00" from="-1445926305#0" to="1445927128"/>
    <trip id="212" depart="6360.00" from="-527232518#0" to="-469966399#9"/>
    <trip id="213" depart="6390.00" from="1445926305#1" to="-1018228073#0"/>
    <trip id="214" depart="6420.00" from="1445927129" to="1462849220"/>
    <trip id="215" depart="6450.00" from="-1445926300" to="1018228073#1"/>
    <trip id="216" depart="6480.00" from="-1445926303#4" to="475071113#6"/>
    <trip id="217" depart="6510.00" from="-695769583" to="-1018228073#0"/>
    <trip id="218" depart="6540.00" from="-1445927128" to="469966399#14"/>
    <trip id="219" depart="6570.00" from="-475071113#0" to="469966399#13"/>
    <trip id="220" depart="6600.00" from="1445926306#0" to="695769604"/>
    <trip id="221" depart="6630.00" from="1018228073#0" to="475071113#5"/>
    <trip id="222" depart="6660.00" from="475071113#5" to="1445926311"/>
    <trip id="223" depart="6690.00" from="1445927129" to="1445926303#3"/>
    <trip id="224" depart="6720.00" from="469966399#8" to="1445926303#4"/>
    <trip id="225" depart="6750.00" from="475071113#6" to="1462849220"/>
    <trip id="226" depart="6780.00" from="-475071113#4" to="-469966400#2"/>
    <trip id="227" depart="6810.00" from="-1445927128" to="1445926311"/>
    <trip id="228" depart="6840.00" from="469966399#0" to="1445926303#4"/>
    <trip id="229" depart="6870.00" from="1445926303#1" to="-475071113#0"/>
    <trip id="230" depart="6900.00" from="-1445926300" to="-475071113#2"/>
    <trip id="231" depart="6930.00" from="-1445927128" to="-798234860#0"/>
    <trip id="232" depart="6960.00" from="-695769583" to="-1445927129"/>
    <trip id="233" depart="6990.00" from="-1445926309" to="1445927128"/>
    <trip id="234" depart="7020.00" from="1445927129" to="-1445926303#2"/>
    <trip id="235" depart="7050.00" from="-469966399#6" to="1445926303#4"/>
    <trip id="236" depart="7080.00" from="-469966399#8" to="-469966399#2"/>
    <trip id="237" depart="7110.00" from="-469966399#9" to="469966400#1"/>
    <trip id="238" depart="7140.00" from="1018228073#0" to="1445927128"/>
    <trip id="239" depart="7170.00" from="469966400#3" to="1462849220"/>
    <trip id="240" depart="7200.00" from="-469966399#14" to="-1018228073#0"/>
    <trip id="241" depart="7230.00" from="-469966399#14" to="1462849220"/>
    <trip id="242" depart="7260.00" from="469966400#3" to="475071113#5"/>
    <trip id="243" depart="7290.00" from="-469966399#9" to="1462849220"/>
    <trip id="244" depart="7320.00" from="-695769583" to="1445926309"/>
    <trip id="245" depart="7350.00" from="-1445926308#0" to="-469966399#4"/>
    <trip id="246" depart="7380.00" from="-469966400#2" to="-1018228073#0"/>
    <trip id="247" depart="7410.00" from="-469966399#14" to="1445927128"/>
    <trip id="248" depart="7440.00" from="-469966399#6" to="-1445927129"/>
    <trip id="249" depart="7470.00" from="-475071113#2" to="-1445927129"/>
    <trip id="250" depart="7500.00" from="1445926303#0" to="-1018228073#0"/>
    <trip id="251" depart="7530.00" from="-469966399#4" to="1445926305#0"/>
    <trip id="252" depart="7560.00" from="-1018228073#1" to="1445926311"/>
    <trip id="253" depart="7590.00" from="-1445926303#4" to="1445926300"/>
    <trip id="254" depart="7620.00" from="-1018228073#1" to="1018228073#1"/>
    <trip id="255" depart="7650.00" from="-1445926306#0" to="-798234860#0"/>
    <trip id="256" depart="7680.00" from="469966399#0" to="1018228073#1"/>
    <trip id="257" depart="7710.00" from="1445927129" to="469966399#14"/>
    <trip id="258" depart="7740.00" from="-1445927128" to="-1445926305#0"/>
    <trip id="259" depart="7770.00" from="-1018228073#1" to="1445926303#4"/>
    <trip id="260" depart="7800.00" from="798234860#1" to="-798234860#0"/>
    <trip id="261" depart="7830.00" from="1445926305#0" to="469966399#1"/>
    <trip id="262" depart="7860.00" from="1445926305#0" to="1462849220"/>
    <trip id="263" depart="7890.00" from="798234860#0" to="-469966399#12"/>
    <trip id="264" depart="7920.00" from="-1018228073#1" to="-1445927129"/>
    <trip id="265" depart="7950.00" from="-1445926303#3" to="1445927128"/>
    <trip id="266" depart="7980.00" from="1018228073#0" to="-469966399#4"/>
    <trip id="267" depart="8010.00" from="1445927127" to="1462849220"/>
    <trip id="268" depart="8040.00" from="-1445926303#4" to="1445926309"/>
    <trip id="269" depart="8070.00" from="1445927129" to="-1445926309"/>
    <trip id="270" depart="8100.00" from="469966399#6" to="527232518#1"/>
    <trip id="271" depart="8130.00" from="-1445926300" to="-1018228073#0"/>
    <trip id="272" depart="8160.00" from="-469966399#11" to="1445927128"/>
    <trip id="273" depart="8190.00" from="798234860#0" to="1018228073#1"/>
    <trip id="274" depart="8220.00" from="1445927129" to="-1445926304"/>
    <trip id="275" depart="8250.00" from="1445926309" to="1445926311"/>
    <trip id="276" depart="8280.00" from="-1445926300" to="1462849220"/>
    <trip id="277" depart="8310.00" from="469966400#2" to="1445926308#1"/>
    <trip id="278" depart="8340.00" from="-1445926303#2" to="695769603"/>
    <trip id="279" depart="8370.00" from="469966399#12" to="-798234860#0"/>
    <trip id="280" depart="8400.00" from="-469966400#0" to="-798234860#0"/>
    <trip id="281" depart="8430.00" from="-695769583" to="-798234860#0"/>
    <trip id="282" depart="8460.00" from="469966400#2" to="469966399#14"/>
    <trip id="283" depart="8490.00" from="-1445926300" to="527232518#0"/>
    <trip id="284" depart="8520.00" from="1445926303#2" to="469966399#14"/>
    <trip id="285" depart="8550.00" from="1445927129" to="1445926300"/>
    <trip id="286" depart="8580.00" from="1445927129" to="527232518#1"/>
    <trip id="287" depart="8610.00" from="-1445927128" to="469966399#14"/>
    <trip id="288" depart="8640.00" from="-695769583" to="1445926302"/>
    <trip id="289" depart="8670.00" from="-469966400#2" to="1462849220"/>
    <trip id="290" depart="8700.00" from="-1445927128" to="469966399#14"/>
    <trip id="291" depart="8730.00" from="469966399#8" to="-1445926305#1"/>
    <trip id="292" depart="8760.00" from="475071113#3" to="-469966399#9"/>
    <trip id="293" depart="8790.00" from="-475071113#2" to="1445926311"/>
    <trip id="294" depart="8820.00" from="-469966399#14" to="-1018228073#0"/>
    <trip id="295" depart="8850.00" from="469966400#2" to="-469966399#1"/>
    <trip id="296" depart="8880.00" from="-1445926306#1" to="469966399#12"/>
    <trip id="297" depart="8910.00" from="-469966399#14" to="469966399#6"/>
    <trip id="298" depart="8940.00" from="1445927129" to="-475071113#0"/>
    <trip id="299" depart="8970.00" from="-1018228073#1" to="475071113#4"/>
    <trip id="300" depart="9000.00" from="-1445926300" to="1445927130"/>
    <trip id="301" depart="9030.00" from="-475071113#6" to="1462849220"/>
    <trip id="302" depart="9060.00" from="1445926309" to="1445926311"/>
    <trip id="303" depart="9090.00" from="-527232518#0" to="469966399#11"/>
    <trip id="304" depart="9120.00" from="-1445926300" to="-469966399#4"/>
    <trip id="305" depart="9150.00" from="1445926309" to="-475071113#6"/>
    <trip id="306" depart="9180.00" from="1018228073#0" to="1445926300"/>
    <trip id="307" depart="9210.00" from="-695769583" to="1018228073#1"/>
    <trip id="308" depart="9240.00" from="1445927129" to="-798234860#0"/>
    <trip id="309" depart="9270.00" from="1445927129" to="-469966400#4"/>
    <trip id="310" depart="9300.00" from="-1445927128" to="-1445927127"/>
    <trip id="311" depart="9330.00" from="-1445926305#0" to="-1445927127"/>
    <trip id="312" depart="9360.00" from="-695769583" to="1462849220"/>
    <trip id="313" depart="9390.00" from="-1445926304" to="-469966399#3"/>
    <trip id="314" depart="9420.00" from="-475071113#6" to="1462849220"/>
    <trip id="315" depart="9450.00" from="798234860#0" to="1445926303#4"/>
    <trip id="316" depart="9480.00" from="-1445927128" to="-1445926306#1"/>
    <trip id="317" depart="9510.00" from="-1445926305#0" to="-469966399#6"/>
    <trip id="318" depart="9540.00" from="-1445926303#4" to="-1018228073#0"/>
    <trip id="319" depart="9570.00" from="-695769583" to="-475071113#0"/>
    <trip id="320" depart="9600.00" from="798234860#0" to="1445926303#4"/>
    <trip id="321" depart="9630.00" from="1445927127" to="-1445927129"/>
    <trip id="322" depart="9660.00" from="475071113#0" to="1445926303#1"/>
    <trip id="323" depart="9690.00" from="475071113#1" to="1445926305#2"/>
    <trip id="324" depart="9720.00" from="-475071113#3" to="1445926300"/>
    <trip id="325" depart="9750.00" from="-1445926303#4" to="-1018228073#0"/>
    <trip id="326" depart="9780.00" from="798234860#0" to="1445926300"/>
    <trip id="327" depart="9810.00" from="469966399#7" to="1018228073#1"/>
    <trip id="328" depart="9840.00" from="-1445926300" to="1445926311"/>
    <trip id="329" depart="9870.00" from="-1018228073#1" to="-1445927129"/>
    <trip id="330" depart="9900.00" from="1018228073#0" to="-475071113#5"/>
    <trip id="331" depart="9930.00" from="798234860#0" to="-1445926309"/>
    <trip id="332" depart="9960.00" from="469966399#0" to="1445926309"/>
    <trip id="333" depart="9990.00" from="469966399#13" to="-469966399#5"/>
</routes>
