<routes>
        <vType id="cars" accel="0.8" decel="4.5" sigma="0.5" length="5" minGap="2.5" maxSpeed="16.67" guiShape="passenger"/>

        <route id="WE" edges="51o 1i 2o 52i" />
        <route id="WN" edges="51o 1i 4o 54i" />
        <route id="WS" edges="51o 1i 3o 53i" />
        <route id="SN" edges="53o 3i 4o 54i" />
        <route id="SW" edges="53o 3i 1o 51i" />
        <route id="SE" edges="53o 3i 2o 52i" />
        <route id="EW" edges="52o 2i 1o 51i" />
        <route id="ES" edges="52o 2i 3o 53i" />
        <route id="EN" edges="52o 2i 4o 54i" />
        <route id="NS" edges="54o 4i 3o 53i" />
        <route id="NE" edges="54o 4i 2o 52i" />
        <route id="NW" edges="54o 4i 1o 51i" />
    <vehicle id="SN_0" type="cars" route="SN" depart="0" departLane="best" />
    <vehicle id="NS_0" type="cars" route="NS" depart="1" departLane="best" />
    <vehicle id="EW_0" type="cars" route="EW" depart="3" departLane="best" />
    <vehicle id="WN_0" type="cars" route="WN" depart="8" departLane="best" />
    <vehicle id="WE_0" type="cars" route="WE" depart="10" departLane="best"/>
    <vehicle id="WE_1" type="cars" route="WE" depart="16" departLane="best"/>
    <vehicle id="SE_0" type="cars" route="SE" depart="21" departLane="best" />
    <vehicle id="NE_0" type="cars" route="NE" depart="23" departLane="best" />
    <vehicle id="WN_1" type="cars" route="WN" depart="24" departLane="best" />
    <vehicle id="EW_1" type="cars" route="EW" depart="26" departLane="best" />
    <vehicle id="SW_0" type="cars" route="SW" depart="29" departLane="best" />
    <vehicle id="SE_1" type="cars" route="SE" depart="31" departLane="best" />
    <vehicle id="NE_1" type="cars" route="NE" depart="34" departLane="best" />
    <vehicle id="WE_2" type="cars" route="WE" depart="39" departLane="best"/>
    <vehicle id="WE_3" type="cars" route="WE" depart="42" departLane="best"/>
    <vehicle id="SN_1" type="cars" route="SN" depart="42" departLane="best" />
    <vehicle id="SN_2" type="cars" route="SN" depart="47" departLane="best" />
    <vehicle id="EN_0" type="cars" route="EN" depart="48" departLane="best" />
    <vehicle id="NE_2" type="cars" route="NE" depart="51" departLane="best" />
    <vehicle id="EW_2" type="cars" route="EW" depart="53" departLane="best" />
    <vehicle id="ES_0" type="cars" route="ES" depart="55" departLane="best" />
    <vehicle id="EW_3" type="cars" route="EW" depart="70" departLane="best" />
    <vehicle id="NW_0" type="cars" route="NW" depart="71" departLane="best" />
    <vehicle id="SN_3" type="cars" route="SN" depart="73" departLane="best" />
    <vehicle id="NW_1" type="cars" route="NW" depart="77" departLane="best" />
    <vehicle id="EN_1" type="cars" route="EN" depart="83" departLane="best" />
    <vehicle id="WE_4" type="cars" route="WE" depart="84" departLane="best"/>
    <vehicle id="NS_1" type="cars" route="NS" depart="91" departLane="best" />
    <vehicle id="WN_2" type="cars" route="WN" depart="92" departLane="best" />
    <vehicle id="NS_2" type="cars" route="NS" depart="92" departLane="best" />
    <vehicle id="EW_4" type="cars" route="EW" depart="93" departLane="best" />
    <vehicle id="NS_3" type="cars" route="NS" depart="94" departLane="best" />
    <vehicle id="NW_2" type="cars" route="NW" depart="94" departLane="best" />
    <vehicle id="WN_3" type="cars" route="WN" depart="95" departLane="best" />
    <vehicle id="WN_4" type="cars" route="WN" depart="113" departLane="best" />
    <vehicle id="EN_2" type="cars" route="EN" depart="114" departLane="best" />
    <vehicle id="WN_5" type="cars" route="WN" depart="116" departLane="best" />
    <vehicle id="SN_4" type="cars" route="SN" depart="117" departLane="best" />
    <vehicle id="EW_5" type="cars" route="EW" depart="122" departLane="best" />
    <vehicle id="SN_5" type="cars" route="SN" depart="130" departLane="best" />
    <vehicle id="SN_6" type="cars" route="SN" depart="134" departLane="best" />
    <vehicle id="WE_5" type="cars" route="WE" depart="140" departLane="best"/>
    <vehicle id="WN_6" type="cars" route="WN" depart="147" departLane="best" />
    <vehicle id="EN_3" type="cars" route="EN" depart="149" departLane="best" />
    <vehicle id="NS_4" type="cars" route="NS" depart="152" departLane="best" />
    <vehicle id="EW_6" type="cars" route="EW" depart="157" departLane="best" />
    <vehicle id="SN_7" type="cars" route="SN" depart="157" departLane="best" />
    <vehicle id="NS_5" type="cars" route="NS" depart="159" departLane="best" />
    <vehicle id="SW_1" type="cars" route="SW" depart="160" departLane="best" />
    <vehicle id="WE_6" type="cars" route="WE" depart="161" departLane="best"/>
    <vehicle id="NW_3" type="cars" route="NW" depart="166" departLane="best" />
    <vehicle id="WE_7" type="cars" route="WE" depart="171" departLane="best"/>
    <vehicle id="NW_4" type="cars" route="NW" depart="171" departLane="best" />
    <vehicle id="EW_7" type="cars" route="EW" depart="172" departLane="best" />
    <vehicle id="ES_1" type="cars" route="ES" depart="172" departLane="best" />
    <vehicle id="NE_3" type="cars" route="NE" depart="172" departLane="best" />
    <vehicle id="SN_8" type="cars" route="SN" depart="174" departLane="best" />
    <vehicle id="EW_8" type="cars" route="EW" depart="176" departLane="best" />
    <vehicle id="EW_9" type="cars" route="EW" depart="180" departLane="best" />
    <vehicle id="EW_10" type="cars" route="EW" depart="189" departLane="best" />
    <vehicle id="WE_8" type="cars" route="WE" depart="197" departLane="best"/>
    <vehicle id="WN_7" type="cars" route="WN" depart="197" departLane="best" />
    <vehicle id="EW_11" type="cars" route="EW" depart="199" departLane="best" />
    <vehicle id="EN_4" type="cars" route="EN" depart="204" departLane="best" />
    <vehicle id="WE_9" type="cars" route="WE" depart="206" departLane="best"/>
    <vehicle id="NS_6" type="cars" route="NS" depart="206" departLane="best" />
    <vehicle id="WN_8" type="cars" route="WN" depart="208" departLane="best" />
    <vehicle id="EN_5" type="cars" route="EN" depart="208" departLane="best" />
    <vehicle id="SE_2" type="cars" route="SE" depart="209" departLane="best" />
    <vehicle id="WE_10" type="cars" route="WE" depart="214" departLane="best"/>
    <vehicle id="WN_9" type="cars" route="WN" depart="222" departLane="best" />
    <vehicle id="WN_10" type="cars" route="WN" depart="223" departLane="best" />
    <vehicle id="NE_4" type="cars" route="NE" depart="223" departLane="best" />
    <vehicle id="ES_2" type="cars" route="ES" depart="229" departLane="best" />
    <vehicle id="EW_12" type="cars" route="EW" depart="236" departLane="best" />
    <vehicle id="EN_6" type="cars" route="EN" depart="237" departLane="best" />
    <vehicle id="WE_11" type="cars" route="WE" depart="238" departLane="best"/>
    <vehicle id="SN_9" type="cars" route="SN" depart="242" departLane="best" />
    <vehicle id="EW_13" type="cars" route="EW" depart="246" departLane="best" />
    <vehicle id="WE_12" type="cars" route="WE" depart="247" departLane="best"/>
    <vehicle id="NS_7" type="cars" route="NS" depart="254" departLane="best" />
    <vehicle id="WE_13" type="cars" route="WE" depart="255" departLane="best"/>
    <vehicle id="EN_7" type="cars" route="EN" depart="260" departLane="best" />
    <vehicle id="NW_5" type="cars" route="NW" depart="260" departLane="best" />
    <vehicle id="WN_11" type="cars" route="WN" depart="269" departLane="best" />
    <vehicle id="ES_3" type="cars" route="ES" depart="270" departLane="best" />
    <vehicle id="EW_14" type="cars" route="EW" depart="273" departLane="best" />
    <vehicle id="NS_8" type="cars" route="NS" depart="273" departLane="best" />
    <vehicle id="SN_10" type="cars" route="SN" depart="273" departLane="best" />
    <vehicle id="WE_14" type="cars" route="WE" depart="276" departLane="best"/>
    <vehicle id="ES_4" type="cars" route="ES" depart="276" departLane="best" />
    <vehicle id="EW_15" type="cars" route="EW" depart="278" departLane="best" />
    <vehicle id="SN_11" type="cars" route="SN" depart="280" departLane="best" />
    <vehicle id="WE_15" type="cars" route="WE" depart="284" departLane="best"/>
    <vehicle id="EW_16" type="cars" route="EW" depart="285" departLane="best" />
    <vehicle id="WE_16" type="cars" route="WE" depart="286" departLane="best"/>
    <vehicle id="WE_17" type="cars" route="WE" depart="294" departLane="best"/>
    <vehicle id="NS_9" type="cars" route="NS" depart="296" departLane="best" />
    <vehicle id="WE_18" type="cars" route="WE" depart="299" departLane="best"/>
    <vehicle id="WN_12" type="cars" route="WN" depart="301" departLane="best" />
    <vehicle id="EW_17" type="cars" route="EW" depart="303" departLane="best" />
    <vehicle id="EN_8" type="cars" route="EN" depart="305" departLane="best" />
    <vehicle id="EW_18" type="cars" route="EW" depart="308" departLane="best" />
    <vehicle id="SN_12" type="cars" route="SN" depart="311" departLane="best" />
    <vehicle id="SN_13" type="cars" route="SN" depart="313" departLane="best" />
    <vehicle id="SN_14" type="cars" route="SN" depart="316" departLane="best" />
    <vehicle id="WE_19" type="cars" route="WE" depart="321" departLane="best"/>
    <vehicle id="EW_19" type="cars" route="EW" depart="325" departLane="best" />
    <vehicle id="WN_13" type="cars" route="WN" depart="327" departLane="best" />
    <vehicle id="WS_0" type="cars" route="WS" depart="330" departLane="best" />
    <vehicle id="SN_15" type="cars" route="SN" depart="330" departLane="best" />
    <vehicle id="NS_10" type="cars" route="NS" depart="332" departLane="best" />
    <vehicle id="NW_6" type="cars" route="NW" depart="336" departLane="best" />
    <vehicle id="EW_20" type="cars" route="EW" depart="340" departLane="best" />
    <vehicle id="WS_1" type="cars" route="WS" depart="341" departLane="best" />
    <vehicle id="SN_16" type="cars" route="SN" depart="350" departLane="best" />
    <vehicle id="SW_2" type="cars" route="SW" depart="352" departLane="best" />
    <vehicle id="WS_2" type="cars" route="WS" depart="353" departLane="best" />
    <vehicle id="EN_9" type="cars" route="EN" depart="353" departLane="best" />
    <vehicle id="NW_7" type="cars" route="NW" depart="353" departLane="best" />
    <vehicle id="WE_20" type="cars" route="WE" depart="356" departLane="best"/>
    <vehicle id="NS_11" type="cars" route="NS" depart="359" departLane="best" />
    <vehicle id="SN_17" type="cars" route="SN" depart="360" departLane="best" />
    <vehicle id="NS_12" type="cars" route="NS" depart="364" departLane="best" />
    <vehicle id="SN_18" type="cars" route="SN" depart="364" departLane="best" />
    <vehicle id="NS_13" type="cars" route="NS" depart="368" departLane="best" />
    <vehicle id="ES_5" type="cars" route="ES" depart="376" departLane="best" />
    <vehicle id="WE_21" type="cars" route="WE" depart="377" departLane="best"/>
    <vehicle id="NS_14" type="cars" route="NS" depart="380" departLane="best" />
    <vehicle id="WE_22" type="cars" route="WE" depart="381" departLane="best"/>
    <vehicle id="ES_6" type="cars" route="ES" depart="381" departLane="best" />
    <vehicle id="EN_10" type="cars" route="EN" depart="382" departLane="best" />
    <vehicle id="WE_23" type="cars" route="WE" depart="383" departLane="best"/>
    <vehicle id="WN_14" type="cars" route="WN" depart="383" departLane="best" />
    <vehicle id="NS_15" type="cars" route="NS" depart="383" departLane="best" />
    <vehicle id="WE_24" type="cars" route="WE" depart="386" departLane="best"/>
    <vehicle id="SW_3" type="cars" route="SW" depart="391" departLane="best" />
    <vehicle id="WE_25" type="cars" route="WE" depart="393" departLane="best"/>
    <vehicle id="WE_26" type="cars" route="WE" depart="394" departLane="best"/>
    <vehicle id="EW_21" type="cars" route="EW" depart="395" departLane="best" />
    <vehicle id="SN_19" type="cars" route="SN" depart="399" departLane="best" />
    <vehicle id="SN_20" type="cars" route="SN" depart="400" departLane="best" />
    <vehicle id="NE_5" type="cars" route="NE" depart="405" departLane="best" />
    <vehicle id="EN_11" type="cars" route="EN" depart="406" departLane="best" />
    <vehicle id="SE_3" type="cars" route="SE" depart="406" departLane="best" />
    <vehicle id="EW_22" type="cars" route="EW" depart="407" departLane="best" />
    <vehicle id="NS_16" type="cars" route="NS" depart="409" departLane="best" />
    <vehicle id="SE_4" type="cars" route="SE" depart="412" departLane="best" />
    <vehicle id="NE_6" type="cars" route="NE" depart="414" departLane="best" />
    <vehicle id="WE_27" type="cars" route="WE" depart="416" departLane="best"/>
    <vehicle id="WS_3" type="cars" route="WS" depart="423" departLane="best" />
    <vehicle id="NS_17" type="cars" route="NS" depart="424" departLane="best" />
    <vehicle id="WE_28" type="cars" route="WE" depart="425" departLane="best"/>
    <vehicle id="SE_5" type="cars" route="SE" depart="426" departLane="best" />
    <vehicle id="SN_21" type="cars" route="SN" depart="431" departLane="best" />
    <vehicle id="ES_7" type="cars" route="ES" depart="433" departLane="best" />
    <vehicle id="NE_7" type="cars" route="NE" depart="436" departLane="best" />
    <vehicle id="WE_29" type="cars" route="WE" depart="437" departLane="best"/>
    <vehicle id="SW_4" type="cars" route="SW" depart="438" departLane="best" />
    <vehicle id="WN_15" type="cars" route="WN" depart="445" departLane="best" />
    <vehicle id="NS_18" type="cars" route="NS" depart="449" departLane="best" />
    <vehicle id="EW_23" type="cars" route="EW" depart="453" departLane="best" />
    <vehicle id="ES_8" type="cars" route="ES" depart="453" departLane="best" />
    <vehicle id="NS_19" type="cars" route="NS" depart="454" departLane="best" />
    <vehicle id="WE_30" type="cars" route="WE" depart="455" departLane="best"/>
    <vehicle id="NS_20" type="cars" route="NS" depart="456" departLane="best" />
    <vehicle id="WE_31" type="cars" route="WE" depart="457" departLane="best"/>
    <vehicle id="ES_9" type="cars" route="ES" depart="462" departLane="best" />
    <vehicle id="ES_10" type="cars" route="ES" depart="463" departLane="best" />
    <vehicle id="EW_24" type="cars" route="EW" depart="464" departLane="best" />
    <vehicle id="EW_25" type="cars" route="EW" depart="465" departLane="best" />
    <vehicle id="WE_32" type="cars" route="WE" depart="466" departLane="best"/>
    <vehicle id="WE_33" type="cars" route="WE" depart="474" departLane="best"/>
    <vehicle id="NS_21" type="cars" route="NS" depart="475" departLane="best" />
    <vehicle id="SN_22" type="cars" route="SN" depart="482" departLane="best" />
    <vehicle id="WS_4" type="cars" route="WS" depart="487" departLane="best" />
    <vehicle id="WS_5" type="cars" route="WS" depart="493" departLane="best" />
    <vehicle id="NS_22" type="cars" route="NS" depart="504" departLane="best" />
    <vehicle id="SN_23" type="cars" route="SN" depart="504" departLane="best" />
    <vehicle id="SN_24" type="cars" route="SN" depart="513" departLane="best" />
    <vehicle id="NS_23" type="cars" route="NS" depart="514" departLane="best" />
    <vehicle id="NS_24" type="cars" route="NS" depart="518" departLane="best" />
    <vehicle id="SE_6" type="cars" route="SE" depart="528" departLane="best" />
    <vehicle id="NE_8" type="cars" route="NE" depart="537" departLane="best" />
    <vehicle id="NS_25" type="cars" route="NS" depart="541" departLane="best" />
    <vehicle id="WE_34" type="cars" route="WE" depart="543" departLane="best"/>
    <vehicle id="SN_25" type="cars" route="SN" depart="545" departLane="best" />
    <vehicle id="WN_16" type="cars" route="WN" depart="547" departLane="best" />
    <vehicle id="WS_6" type="cars" route="WS" depart="547" departLane="best" />
    <vehicle id="WS_7" type="cars" route="WS" depart="549" departLane="best" />
    <vehicle id="EW_26" type="cars" route="EW" depart="554" departLane="best" />
    <vehicle id="EW_27" type="cars" route="EW" depart="560" departLane="best" />
    <vehicle id="WS_8" type="cars" route="WS" depart="562" departLane="best" />
    <vehicle id="SN_26" type="cars" route="SN" depart="570" departLane="best" />
    <vehicle id="SN_27" type="cars" route="SN" depart="576" departLane="best" />
    <vehicle id="NE_9" type="cars" route="NE" depart="581" departLane="best" />
    <vehicle id="SE_7" type="cars" route="SE" depart="581" departLane="best" />
    <vehicle id="NE_10" type="cars" route="NE" depart="584" departLane="best" />
    <vehicle id="SN_28" type="cars" route="SN" depart="584" departLane="best" />
    <vehicle id="NE_11" type="cars" route="NE" depart="586" departLane="best" />
    <vehicle id="SW_5" type="cars" route="SW" depart="591" departLane="best" />
    <vehicle id="WS_9" type="cars" route="WS" depart="596" departLane="best" />
    <vehicle id="WN_17" type="cars" route="WN" depart="599" departLane="best" />
    <vehicle id="EW_28" type="cars" route="EW" depart="601" departLane="best" />
    <vehicle id="SN_29" type="cars" route="SN" depart="612" departLane="best" />
    <vehicle id="EN_12" type="cars" route="EN" depart="615" departLane="best" />
    <vehicle id="WE_35" type="cars" route="WE" depart="618" departLane="best"/>
    <vehicle id="NW_8" type="cars" route="NW" depart="620" departLane="best" />
    <vehicle id="ES_11" type="cars" route="ES" depart="625" departLane="best" />
    <vehicle id="EN_13" type="cars" route="EN" depart="626" departLane="best" />
    <vehicle id="EW_29" type="cars" route="EW" depart="627" departLane="best" />
    <vehicle id="WS_10" type="cars" route="WS" depart="628" departLane="best" />
    <vehicle id="WN_18" type="cars" route="WN" depart="637" departLane="best" />
    <vehicle id="ES_12" type="cars" route="ES" depart="641" departLane="best" />
    <vehicle id="EW_30" type="cars" route="EW" depart="642" departLane="best" />
    <vehicle id="NW_9" type="cars" route="NW" depart="644" departLane="best" />
    <vehicle id="WS_11" type="cars" route="WS" depart="647" departLane="best" />
    <vehicle id="WE_36" type="cars" route="WE" depart="650" departLane="best"/>
    <vehicle id="ES_13" type="cars" route="ES" depart="650" departLane="best" />
    <vehicle id="EN_14" type="cars" route="EN" depart="653" departLane="best" />
    <vehicle id="NS_26" type="cars" route="NS" depart="653" departLane="best" />
    <vehicle id="SE_8" type="cars" route="SE" depart="659" departLane="best" />
    <vehicle id="EN_15" type="cars" route="EN" depart="666" departLane="best" />
    <vehicle id="WE_37" type="cars" route="WE" depart="668" departLane="best"/>
    <vehicle id="NW_10" type="cars" route="NW" depart="673" departLane="best" />
    <vehicle id="SN_30" type="cars" route="SN" depart="678" departLane="best" />
    <vehicle id="WE_38" type="cars" route="WE" depart="681" departLane="best"/>
    <vehicle id="WE_39" type="cars" route="WE" depart="689" departLane="best"/>
    <vehicle id="SN_31" type="cars" route="SN" depart="697" departLane="best" />
    <vehicle id="NW_11" type="cars" route="NW" depart="698" departLane="best" />
    <vehicle id="WE_40" type="cars" route="WE" depart="701" departLane="best"/>
    <vehicle id="EW_31" type="cars" route="EW" depart="702" departLane="best" />
    <vehicle id="NS_27" type="cars" route="NS" depart="702" departLane="best" />
    <vehicle id="WE_41" type="cars" route="WE" depart="705" departLane="best"/>
    <vehicle id="SN_32" type="cars" route="SN" depart="705" departLane="best" />
    <vehicle id="WE_42" type="cars" route="WE" depart="711" departLane="best"/>
    <vehicle id="EW_32" type="cars" route="EW" depart="711" departLane="best" />
    <vehicle id="NE_12" type="cars" route="NE" depart="711" departLane="best" />
    <vehicle id="NW_12" type="cars" route="NW" depart="716" departLane="best" />
    <vehicle id="SW_6" type="cars" route="SW" depart="719" departLane="best" />
    <vehicle id="SE_9" type="cars" route="SE" depart="719" departLane="best" />
    <vehicle id="EW_33" type="cars" route="EW" depart="722" departLane="best" />
    <vehicle id="SN_33" type="cars" route="SN" depart="723" departLane="best" />
    <vehicle id="SE_10" type="cars" route="SE" depart="723" departLane="best" />
    <vehicle id="SN_34" type="cars" route="SN" depart="726" departLane="best" />
    <vehicle id="WS_12" type="cars" route="WS" depart="728" departLane="best" />
    <vehicle id="EW_34" type="cars" route="EW" depart="734" departLane="best" />
    <vehicle id="SW_7" type="cars" route="SW" depart="735" departLane="best" />
    <vehicle id="EN_16" type="cars" route="EN" depart="741" departLane="best" />
    <vehicle id="WE_43" type="cars" route="WE" depart="743" departLane="best"/>
    <vehicle id="ES_14" type="cars" route="ES" depart="744" departLane="best" />
    <vehicle id="EN_17" type="cars" route="EN" depart="744" departLane="best" />
    <vehicle id="NS_28" type="cars" route="NS" depart="747" departLane="best" />
    <vehicle id="NW_13" type="cars" route="NW" depart="748" departLane="best" />
    <vehicle id="NE_13" type="cars" route="NE" depart="749" departLane="best" />
    <vehicle id="NS_29" type="cars" route="NS" depart="756" departLane="best" />
    <vehicle id="SN_35" type="cars" route="SN" depart="756" departLane="best" />
    <vehicle id="NS_30" type="cars" route="NS" depart="757" departLane="best" />
    <vehicle id="SN_36" type="cars" route="SN" depart="762" departLane="best" />
    <vehicle id="WE_44" type="cars" route="WE" depart="766" departLane="best"/>
    <vehicle id="SN_37" type="cars" route="SN" depart="767" departLane="best" />
    <vehicle id="SE_11" type="cars" route="SE" depart="771" departLane="best" />
    <vehicle id="SN_38" type="cars" route="SN" depart="776" departLane="best" />
    <vehicle id="EW_35" type="cars" route="EW" depart="779" departLane="best" />
    <vehicle id="NW_14" type="cars" route="NW" depart="781" departLane="best" />
    <vehicle id="NS_31" type="cars" route="NS" depart="782" departLane="best" />
    <vehicle id="SN_39" type="cars" route="SN" depart="784" departLane="best" />
    <vehicle id="ES_15" type="cars" route="ES" depart="786" departLane="best" />
    <vehicle id="SE_12" type="cars" route="SE" depart="786" departLane="best" />
    <vehicle id="WE_45" type="cars" route="WE" depart="791" departLane="best"/>
    <vehicle id="EW_36" type="cars" route="EW" depart="792" departLane="best" />
    <vehicle id="NS_32" type="cars" route="NS" depart="792" departLane="best" />
    <vehicle id="NS_33" type="cars" route="NS" depart="793" departLane="best" />
    <vehicle id="ES_16" type="cars" route="ES" depart="794" departLane="best" />
    <vehicle id="NE_14" type="cars" route="NE" depart="794" departLane="best" />
    <vehicle id="SE_13" type="cars" route="SE" depart="797" departLane="best" />
    <vehicle id="EW_37" type="cars" route="EW" depart="798" departLane="best" />
    <vehicle id="WE_46" type="cars" route="WE" depart="812" departLane="best"/>
    <vehicle id="EN_18" type="cars" route="EN" depart="814" departLane="best" />
    <vehicle id="SN_40" type="cars" route="SN" depart="819" departLane="best" />
    <vehicle id="WE_47" type="cars" route="WE" depart="820" departLane="best"/>
    <vehicle id="EN_19" type="cars" route="EN" depart="822" departLane="best" />
    <vehicle id="SW_8" type="cars" route="SW" depart="834" departLane="best" />
    <vehicle id="SN_41" type="cars" route="SN" depart="841" departLane="best" />
    <vehicle id="WN_19" type="cars" route="WN" depart="842" departLane="best" />
    <vehicle id="NS_34" type="cars" route="NS" depart="845" departLane="best" />
    <vehicle id="NW_15" type="cars" route="NW" depart="846" departLane="best" />
    <vehicle id="WE_48" type="cars" route="WE" depart="854" departLane="best"/>
    <vehicle id="SW_9" type="cars" route="SW" depart="855" departLane="best" />
    <vehicle id="SW_10" type="cars" route="SW" depart="857" departLane="best" />
    <vehicle id="NW_16" type="cars" route="NW" depart="860" departLane="best" />
    <vehicle id="WN_20" type="cars" route="WN" depart="865" departLane="best" />
    <vehicle id="SE_14" type="cars" route="SE" depart="872" departLane="best" />
    <vehicle id="WN_21" type="cars" route="WN" depart="873" departLane="best" />
    <vehicle id="NS_35" type="cars" route="NS" depart="876" departLane="best" />
    <vehicle id="NS_36" type="cars" route="NS" depart="878" departLane="best" />
    <vehicle id="EW_38" type="cars" route="EW" depart="882" departLane="best" />
    <vehicle id="SN_42" type="cars" route="SN" depart="884" departLane="best" />
    <vehicle id="NW_17" type="cars" route="NW" depart="888" departLane="best" />
    <vehicle id="EW_39" type="cars" route="EW" depart="893" departLane="best" />
    <vehicle id="WS_13" type="cars" route="WS" depart="894" departLane="best" />
    <vehicle id="WE_49" type="cars" route="WE" depart="898" departLane="best"/>
    <vehicle id="SN_43" type="cars" route="SN" depart="900" departLane="best" />
    <vehicle id="WE_50" type="cars" route="WE" depart="903" departLane="best"/>
    <vehicle id="NE_15" type="cars" route="NE" depart="903" departLane="best" />
    <vehicle id="EN_20" type="cars" route="EN" depart="904" departLane="best" />
    <vehicle id="ES_17" type="cars" route="ES" depart="914" departLane="best" />
    <vehicle id="SE_15" type="cars" route="SE" depart="921" departLane="best" />
    <vehicle id="WE_51" type="cars" route="WE" depart="928" departLane="best"/>
    <vehicle id="EN_21" type="cars" route="EN" depart="940" departLane="best" />
    <vehicle id="NS_37" type="cars" route="NS" depart="940" departLane="best" />
    <vehicle id="ES_18" type="cars" route="ES" depart="943" departLane="best" />
    <vehicle id="SE_16" type="cars" route="SE" depart="948" departLane="best" />
    <vehicle id="SN_44" type="cars" route="SN" depart="953" departLane="best" />
    <vehicle id="EW_40" type="cars" route="EW" depart="958" departLane="best" />
    <vehicle id="EN_22" type="cars" route="EN" depart="962" departLane="best" />
    <vehicle id="WN_22" type="cars" route="WN" depart="965" departLane="best" />
    <vehicle id="NE_16" type="cars" route="NE" depart="967" departLane="best" />
    <vehicle id="WN_23" type="cars" route="WN" depart="982" departLane="best" />
    <vehicle id="SN_45" type="cars" route="SN" depart="985" departLane="best" />
    <vehicle id="NE_17" type="cars" route="NE" depart="988" departLane="best" />
    <vehicle id="NS_38" type="cars" route="NS" depart="992" departLane="best" />
    <vehicle id="EW_41" type="cars" route="EW" depart="994" departLane="best" />
    <vehicle id="NS_39" type="cars" route="NS" depart="1000" departLane="best" />
    <vehicle id="SW_11" type="cars" route="SW" depart="1001" departLane="best" />
    <vehicle id="WS_14" type="cars" route="WS" depart="1002" departLane="best" />
    <vehicle id="WE_52" type="cars" route="WE" depart="1008" departLane="best"/>
    <vehicle id="WE_53" type="cars" route="WE" depart="1014" departLane="best"/>
    <vehicle id="EW_42" type="cars" route="EW" depart="1017" departLane="best" />
    <vehicle id="SN_46" type="cars" route="SN" depart="1019" departLane="best" />
    <vehicle id="EW_43" type="cars" route="EW" depart="1025" departLane="best" />
    <vehicle id="NS_40" type="cars" route="NS" depart="1026" departLane="best" />
    <vehicle id="EW_44" type="cars" route="EW" depart="1027" departLane="best" />
    <vehicle id="NS_41" type="cars" route="NS" depart="1027" departLane="best" />
    <vehicle id="SE_17" type="cars" route="SE" depart="1029" departLane="best" />
    <vehicle id="EN_23" type="cars" route="EN" depart="1031" departLane="best" />
    <vehicle id="SN_47" type="cars" route="SN" depart="1032" departLane="best" />
    <vehicle id="NE_18" type="cars" route="NE" depart="1035" departLane="best" />
    <vehicle id="EW_45" type="cars" route="EW" depart="1038" departLane="best" />
    <vehicle id="NW_18" type="cars" route="NW" depart="1038" departLane="best" />
    <vehicle id="EW_46" type="cars" route="EW" depart="1041" departLane="best" />
    <vehicle id="SE_18" type="cars" route="SE" depart="1047" departLane="best" />
    <vehicle id="NS_42" type="cars" route="NS" depart="1053" departLane="best" />
    <vehicle id="EW_47" type="cars" route="EW" depart="1055" departLane="best" />
    <vehicle id="EN_24" type="cars" route="EN" depart="1060" departLane="best" />
    <vehicle id="NS_43" type="cars" route="NS" depart="1060" departLane="best" />
    <vehicle id="NW_19" type="cars" route="NW" depart="1060" departLane="best" />
    <vehicle id="EW_48" type="cars" route="EW" depart="1064" departLane="best" />
    <vehicle id="WS_15" type="cars" route="WS" depart="1072" departLane="best" />
    <vehicle id="EW_49" type="cars" route="EW" depart="1073" departLane="best" />
    <vehicle id="WE_54" type="cars" route="WE" depart="1075" departLane="best"/>
    <vehicle id="WE_55" type="cars" route="WE" depart="1077" departLane="best"/>
    <vehicle id="EN_25" type="cars" route="EN" depart="1077" departLane="best" />
    <vehicle id="NS_44" type="cars" route="NS" depart="1079" departLane="best" />
    <vehicle id="EW_50" type="cars" route="EW" depart="1081" departLane="best" />
    <vehicle id="WE_56" type="cars" route="WE" depart="1084" departLane="best"/>
    <vehicle id="EN_26" type="cars" route="EN" depart="1084" departLane="best" />
    <vehicle id="WE_57" type="cars" route="WE" depart="1087" departLane="best"/>
    <vehicle id="WN_24" type="cars" route="WN" depart="1095" departLane="best" />
    <vehicle id="NE_19" type="cars" route="NE" depart="1097" departLane="best" />
    <vehicle id="NS_45" type="cars" route="NS" depart="1103" departLane="best" />
    <vehicle id="WE_58" type="cars" route="WE" depart="1106" departLane="best"/>
    <vehicle id="WE_59" type="cars" route="WE" depart="1107" departLane="best"/>