<?xml version="1.0" encoding="UTF-8"?>

<!-- generated on 2026-04-10T02:41:01.457494+05:30 by Eclipse SUMO netconvert 1.25.0
<netconvertConfiguration xmlns:xsi="http://www.w3.org/2001/XMLSchema-instance" xsi:noNamespaceSchemaLocation="http://sumo.dlr.de/xsd/netconvertConfiguration.xsd">

    <input>
        <sumo-net-file value="cross.net.xml"/>
    </input>

    <output>
        <output-file value="map_actuated.net.xml"/>
    </output>

    <processing>
        <geometry.min-radius.fix.railways value="false"/>
        <geometry.avoid-overlap value="false"/>
        <geometry.max-grade.fix value="false"/>
        <offset.disable-normalization value="true"/>
        <lefthand value="0"/>
    </processing>

    <tls_building>
        <tls.default-type value="actuated"/>
        <tls.rebuild value="true"/>
    </tls_building>

    <junctions>
        <no-turnarounds value="true"/>
        <junctions.corner-detail value="5"/>
        <junctions.limit-turn-speed value="5.50"/>
        <rectangular-lane-cut value="0"/>
    </junctions>

    <pedestrian>
        <walkingareas value="0"/>
    </pedestrian>

</netconvertConfiguration>
-->

<net version="1.20" junctionCornerDetail="5" limitTurnSpeed="5.50" avoidOverlap="0" xmlns:xsi="http://www.w3.org/2001/XMLSchema-instance" xsi:noNamespaceSchemaLocation="http://sumo.dlr.de/xsd/net_file.xsd">

    <location netOffset="510.00,510.00" convBoundary="0.00,0.00,1020.00,1020.00" origBoundary="-510.00,-510.00,510.00,510.00" projParameter="!"/>

    <edge id=":0_0" function="internal">
        <lane id=":0_0_0" index="0" speed="6.51" length="9.03" shape="502.00,523.60 501.65,521.15 500.60,519.40 498.85,518.35 496.40,518.00"/>
    </edge>
    <edge id=":0_1" function="internal">
        <lane id=":0_1_0" index="0" speed="15.28" length="27.28" shape="502.00,523.60 502.00,496.40"/>
        <lane id=":0_1_1" index="1" speed="15.28" length="27.28" shape="505.20,523.60 505.20,496.40"/>
        <lane id=":0_1_2" index="2" speed="15.28" length="27.28" shape="505.20,523.60 505.70,515.50 506.80,510.00 507.90,504.50 508.40,496.40"/>
    </edge>
    <edge id=":0_4" function="internal">
        <lane id=":0_4_0" index="0" speed="10.88" length="8.63" shape="508.40,523.60 509.35,515.55 509.58,515.08"/>
        <lane id=":0_4_1" index="1" speed="10.36" length="6.91" shape="508.40,523.60 509.35,516.95 509.45,516.78"/>
    </edge>
    <edge id=":0_24" function="internal">
        <lane id=":0_24_0" index="0" speed="10.88" length="18.51" shape="509.58,515.08 512.20,509.80 516.95,506.35 523.60,505.20"/>
        <lane id=":0_24_1" index="0" speed="10.36" length="17.60" shape="509.45,516.78 512.20,512.20 516.95,509.35 523.60,508.40"/>
    </edge>
    <edge id=":0_6" function="internal">
        <lane id=":0_6_0" index="0" speed="6.51" length="9.03" shape="523.60,518.00 521.15,518.35 519.40,519.40 518.35,521.15 518.00,523.60"/>
    </edge>
    <edge id=":0_7" function="internal">
        <lane id=":0_7_0" index="0" speed="15.28" length="27.28" shape="523.60,518.00 496.40,518.00"/>
        <lane id=":0_7_1" index="1" speed="15.28" length="27.28" shape="523.60,514.80 496.40,514.80"/>
        <lane id=":0_7_2" index="2" speed="15.28" length="27.28" shape="523.60,514.80 515.50,514.30 510.00,513.20 504.50,512.10 496.40,511.60"/>
    </edge>
    <edge id=":0_10" function="internal">
        <lane id=":0_10_0" index="0" speed="10.88" length="8.63" shape="523.60,511.60 515.55,510.65 515.08,510.42"/>
        <lane id=":0_10_1" index="1" speed="10.36" length="6.91" shape="523.60,511.60 516.95,510.65 516.78,510.55"/>
    </edge>
    <edge id=":0_25" function="internal">
        <lane id=":0_25_0" index="0" speed="10.88" length="18.51" shape="515.08,510.42 509.80,507.80 506.35,503.05 505.20,496.40"/>
        <lane id=":0_25_1" index="0" speed="10.36" length="17.60" shape="516.78,510.55 512.20,507.80 509.35,503.05 508.40,496.40"/>
    </edge>
    <edge id=":0_12" function="internal">
        <lane id=":0_12_0" index="0" speed="6.51" length="9.03" shape="518.00,496.40 518.35,498.85 519.40,500.60 521.15,501.65 523.60,502.00"/>
    </edge>
    <edge id=":0_13" function="internal">
        <lane id=":0_13_0" index="0" speed="15.28" length="27.28" shape="518.00,496.40 518.00,523.60"/>
        <lane id=":0_13_1" index="1" speed="15.28" length="27.28" shape="514.80,496.40 514.80,523.60"/>
        <lane id=":0_13_2" index="2" speed="15.28" length="27.28" shape="514.80,496.40 514.30,504.50 513.20,510.00 512.10,515.50 511.60,523.60"/>
    </edge>
    <edge id=":0_16" function="internal">
        <lane id=":0_16_0" index="0" speed="10.88" length="8.63" shape="511.60,496.40 510.65,504.45 510.42,504.92"/>
        <lane id=":0_16_1" index="1" speed="10.36" length="6.91" shape="511.60,496.40 510.65,503.05 510.55,503.22"/>
    </edge>
    <edge id=":0_26" function="internal">
        <lane id=":0_26_0" index="0" speed="10.88" length="18.51" shape="510.42,504.92 507.80,510.20 503.05,513.65 496.40,514.80"/>
        <lane id=":0_26_1" index="0" speed="10.36" length="17.60" shape="510.55,503.22 507.80,507.80 503.05,510.65 496.40,511.60"/>
    </edge>
    <edge id=":0_18" function="internal">
        <lane id=":0_18_0" index="0" speed="6.51" length="9.03" shape="496.40,502.00 498.85,501.65 500.60,500.60 501.65,498.85 502.00,496.40"/>
    </edge>
    <edge id=":0_19" function="internal">
        <lane id=":0_19_0" index="0" speed="15.28" length="27.28" shape="496.40,502.00 523.60,502.00"/>
        <lane id=":0_19_1" index="1" speed="15.28" length="27.28" shape="496.40,505.20 523.60,505.20"/>
        <lane id=":0_19_2" index="2" speed="15.28" length="27.28" shape="496.40,505.20 504.50,505.70 510.00,506.80 515.50,507.90 523.60,508.40"/>
    </edge>
    <edge id=":0_22" function="internal">
        <lane id=":0_22_0" index="0" speed="10.88" length="8.63" shape="496.40,508.40 504.45,509.35 504.92,509.58"/>
        <lane id=":0_22_1" index="1" speed="10.36" length="6.91" shape="496.40,508.40 503.05,509.35 503.22,509.45"/>
    </edge>
    <edge id=":0_27" function="internal">
        <lane id=":0_27_0" index="0" speed="10.88" length="18.51" shape="504.92,509.58 510.20,512.20 513.65,516.95 514.80,523.60"/>
        <lane id=":0_27_1" index="0" speed="10.36" length="17.60" shape="503.22,509.45 507.80,512.20 510.65,516.95 511.60,523.60"/>
    </edge>
    <edge id=":1_0" function="internal">
        <lane id=":1_0_0" index="0" speed="15.28" length="0.10" shape="10.00,518.00 10.00,518.00"/>
        <lane id=":1_0_1" index="1" speed="15.28" length="0.10" shape="10.00,514.80 10.00,514.80"/>
        <lane id=":1_0_2" index="2" speed="15.28" length="0.10" shape="10.00,511.60 10.00,511.60"/>
    </edge>
    <edge id=":1_3" function="internal">
        <lane id=":1_3_0" index="0" speed="15.28" length="0.10" shape="10.00,502.00 10.00,502.00"/>
        <lane id=":1_3_1" index="1" speed="15.28" length="0.10" shape="10.00,505.20 10.00,505.20"/>
        <lane id=":1_3_2" index="2" speed="15.28" length="0.10" shape="10.00,508.40 10.00,508.40"/>
    </edge>
    <edge id=":2_0" function="internal">
        <lane id=":2_0_0" index="0" speed="15.28" length="0.10" shape="1010.00,518.00 1010.00,518.00"/>
        <lane id=":2_0_1" index="1" speed="15.28" length="0.10" shape="1010.00,514.80 1010.00,514.80"/>
        <lane id=":2_0_2" index="2" speed="15.28" length="0.10" shape="1010.00,511.60 1010.00,511.60"/>
    </edge>
    <edge id=":2_3" function="internal">
        <lane id=":2_3_0" index="0" speed="15.28" length="0.10" shape="1010.00,502.00 1010.00,502.00"/>
        <lane id=":2_3_1" index="1" speed="15.28" length="0.10" shape="1010.00,505.20 1010.00,505.20"/>
        <lane id=":2_3_2" index="2" speed="15.28" length="0.10" shape="1010.00,508.40 1010.00,508.40"/>
    </edge>
    <edge id=":3_0" function="internal">
        <lane id=":3_0_0" index="0" speed="15.28" length="0.10" shape="502.00,10.00 502.00,10.00"/>
        <lane id=":3_0_1" index="1" speed="15.28" length="0.10" shape="505.20,10.00 505.20,10.00"/>
        <lane id=":3_0_2" index="2" speed="15.28" length="0.10" shape="508.40,10.00 508.40,10.00"/>
    </edge>
    <edge id=":3_3" function="internal">
        <lane id=":3_3_0" index="0" speed="15.28" length="0.10" shape="518.00,10.00 518.00,10.00"/>
        <lane id=":3_3_1" index="1" speed="15.28" length="0.10" shape="514.80,10.00 514.80,10.00"/>
        <lane id=":3_3_2" index="2" speed="15.28" length="0.10" shape="511.60,10.00 511.60,10.00"/>
    </edge>
    <edge id=":4_0" function="internal">
        <lane id=":4_0_0" index="0" speed="15.28" length="0.10" shape="502.00,1010.00 502.00,1010.00"/>
        <lane id=":4_0_1" index="1" speed="15.28" length="0.10" shape="505.20,1010.00 505.20,1010.00"/>
        <lane id=":4_0_2" index="2" speed="15.28" length="0.10" shape="508.40,1010.00 508.40,1010.00"/>
    </edge>
    <edge id=":4_3" function="internal">
        <lane id=":4_3_0" index="0" speed="15.28" length="0.10" shape="518.00,1010.00 518.00,1010.00"/>
        <lane id=":4_3_1" index="1" speed="15.28" length="0.10" shape="514.80,1010.00 514.80,1010.00"/>
        <lane id=":4_3_2" index="2" speed="15.28" length="0.10" shape="511.60,1010.00 511.60,1010.00"/>
    </edge>
    <edge id=":51_0" function="internal">
        <lane id=":51_0_0" index="0" speed="3.65" length="4.67" shape="0.00,511.60 -1.20,510.80 -1.60,510.00 -1.20,509.20 0.00,508.40"/>
    </edge>
    <edge id=":52_0" function="internal">
        <lane id=":52_0_0" index="0" speed="3.65" length="4.67" shape="1020.00,508.40 1021.20,509.20 1021.60,510.00 1021.20,510.80 1020.00,511.60"/>
    </edge>
    <edge id=":53_0" function="internal">
        <lane id=":53_0_0" index="0" speed="3.65" length="4.67" shape="508.40,0.00 509.20,-1.20 510.00,-1.60 510.80,-1.20 511.60,0.00"/>
    </edge>
    <edge id=":54_0" function="internal">
        <lane id=":54_0_0" index="0" speed="3.65" length="4.67" shape="511.60,1020.00 510.80,1021.20 510.00,1021.60 509.20,1021.20 508.40,1020.00"/>
    </edge>

    <edge id="1i" from="1" to="0" priority="10">
        <lane id="1i_0" index="0" speed="19.44" length="486.40" shape="10.00,502.00 496.40,502.00"/>
        <lane id="1i_1" index="1" speed="19.44" length="486.40" shape="10.00,505.20 496.40,505.20"/>
        <lane id="1i_2" index="2" speed="19.44" length="486.40" shape="10.00,508.40 496.40,508.40"/>
    </edge>
    <edge id="1o" from="0" to="1" priority="10">
        <lane id="1o_0" index="0" speed="11.11" length="486.40" shape="496.40,518.00 10.00,518.00"/>
        <lane id="1o_1" index="1" speed="11.11" length="486.40" shape="496.40,514.80 10.00,514.80"/>
        <lane id="1o_2" index="2" speed="11.11" length="486.40" shape="496.40,511.60 10.00,511.60"/>
    </edge>
    <edge id="2i" from="2" to="0" priority="10">
        <lane id="2i_0" index="0" speed="19.44" length="486.40" shape="1010.00,518.00 523.60,518.00"/>
        <lane id="2i_1" index="1" speed="19.44" length="486.40" shape="1010.00,514.80 523.60,514.80"/>
        <lane id="2i_2" index="2" speed="19.44" length="486.40" shape="1010.00,511.60 523.60,511.60"/>
    </edge>
    <edge id="2o" from="0" to="2" priority="10">
        <lane id="2o_0" index="0" speed="11.11" length="486.40" shape="523.60,502.00 1010.00,502.00"/>
        <lane id="2o_1" index="1" speed="11.11" length="486.40" shape="523.60,505.20 1010.00,505.20"/>
        <lane id="2o_2" index="2" speed="11.11" length="486.40" shape="523.60,508.40 1010.00,508.40"/>
    </edge>
    <edge id="3i" from="3" to="0" priority="10">
        <lane id="3i_0" index="0" speed="19.44" length="486.40" shape="518.00,10.00 518.00,496.40"/>
        <lane id="3i_1" index="1" speed="19.44" length="486.40" shape="514.80,10.00 514.80,496.40"/>
        <lane id="3i_2" index="2" speed="19.44" length="486.40" shape="511.60,10.00 511.60,496.40"/>
    </edge>
    <edge id="3o" from="0" to="3" priority="10">
        <lane id="3o_0" index="0" speed="11.11" length="486.40" shape="502.00,496.40 502.00,10.00"/>
        <lane id="3o_1" index="1" speed="11.11" length="486.40" shape="505.20,496.40 505.20,10.00"/>
        <lane id="3o_2" index="2" speed="11.11" length="486.40" shape="508.40,496.40 508.40,10.00"/>
    </edge>
    <edge id="4i" from="4" to="0" priority="10">
        <lane id="4i_0" index="0" speed="19.44" length="486.40" shape="502.00,1010.00 502.00,523.60"/>
        <lane id="4i_1" index="1" speed="19.44" length="486.40" shape="505.20,1010.00 505.20,523.60"/>
        <lane id="4i_2" index="2" speed="19.44" length="486.40" shape="508.40,1010.00 508.40,523.60"/>
    </edge>
    <edge id="4o" from="0" to="4" priority="10">
        <lane id="4o_0" index="0" speed="11.11" length="486.40" shape="518.00,523.60 518.00,1010.00"/>
        <lane id="4o_1" index="1" speed="11.11" length="486.40" shape="514.80,523.60 514.80,1010.00"/>
        <lane id="4o_2" index="2" speed="11.11" length="486.40" shape="511.60,523.60 511.60,1010.00"/>
    </edge>
    <edge id="51i" from="1" to="51" priority="10">
        <lane id="51i_0" index="0" speed="19.44" length="10.00" shape="10.00,518.00 0.00,518.00"/>
        <lane id="51i_1" index="1" speed="19.44" length="10.00" shape="10.00,514.80 0.00,514.80"/>
        <lane id="51i_2" index="2" speed="19.44" length="10.00" shape="10.00,511.60 0.00,511.60"/>
    </edge>
    <edge id="51o" from="51" to="1" priority="10">
        <lane id="51o_0" index="0" speed="11.11" length="10.00" shape="0.00,502.00 10.00,502.00"/>
        <lane id="51o_1" index="1" speed="11.11" length="10.00" shape="0.00,505.20 10.00,505.20"/>
        <lane id="51o_2" index="2" speed="11.11" length="10.00" shape="0.00,508.40 10.00,508.40"/>
    </edge>
    <edge id="52i" from="2" to="52" priority="10">
        <lane id="52i_0" index="0" speed="19.44" length="10.00" shape="1010.00,502.00 1020.00,502.00"/>
        <lane id="52i_1" index="1" speed="19.44" length="10.00" shape="1010.00,505.20 1020.00,505.20"/>
        <lane id="52i_2" index="2" speed="19.44" length="10.00" shape="1010.00,508.40 1020.00,508.40"/>
    </edge>
    <edge id="52o" from="52" to="2" priority="10">
        <lane id="52o_0" index="0" speed="11.11" length="10.00" shape="1020.00,518.00 1010.00,518.00"/>
        <lane id="52o_1" index="1" speed="11.11" length="10.00" shape="1020.00,514.80 1010.00,514.80"/>
        <lane id="52o_2" index="2" speed="11.11" length="10.00" shape="1020.00,511.60 1010.00,511.60"/>
    </edge>
    <edge id="53i" from="3" to="53" priority="10">
        <lane id="53i_0" index="0" speed="19.44" length="10.00" shape="502.00,10.00 502.00,0.00"/>
        <lane id="53i_1" index="1" speed="19.44" length="10.00" shape="505.20,10.00 505.20,0.00"/>
        <lane id="53i_2" index="2" speed="19.44" length="10.00" shape="508.40,10.00 508.40,0.00"/>
    </edge>
    <edge id="53o" from="53" to="3" priority="10">
        <lane id="53o_0" index="0" speed="11.11" length="10.00" shape="518.00,0.00 518.00,10.00"/>
        <lane id="53o_1" index="1" speed="11.11" length="10.00" shape="514.80,0.00 514.80,10.00"/>
        <lane id="53o_2" index="2" speed="11.11" length="10.00" shape="511.60,0.00 511.60,10.00"/>
    </edge>
    <edge id="54i" from="4" to="54" priority="10">
        <lane id="54i_0" index="0" speed="19.44" length="10.00" shape="518.00,1010.00 518.00,1020.00"/>
        <lane id="54i_1" index="1" speed="19.44" length="10.00" shape="514.80,1010.00 514.80,1020.00"/>
        <lane id="54i_2" index="2" speed="19.44" length="10.00" shape="511.60,1010.00 511.60,1020.00"/>
    </edge>
    <edge id="54o" from="54" to="4" priority="10">
        <lane id="54o_0" index="0" speed="11.11" length="10.00" shape="502.00,1020.00 502.00,1010.00"/>
        <lane id="54o_1" index="1" speed="11.11" length="10.00" shape="505.20,1020.00 505.20,1010.00"/>
        <lane id="54o_2" index="2" speed="11.11" length="10.00" shape="508.40,1020.00 508.40,1010.00"/>
    </edge>

    <tlLogic id="0" type="actuated" programID="0" offset="0">
        <phase duration="29" state="GGGGggrrrrrrGGGGggrrrrrr" minDur="8" maxDur="50"/>
        <phase duration="5"  state="yyyyggrrrrrryyyyggrrrrrr"/>
        <phase duration="6"  state="rrrrGGrrrrrrrrrrGGrrrrrr" minDur="8" maxDur="50"/>
        <phase duration="5"  state="rrrryyrrrrrrrrrryyrrrrrr"/>
        <phase duration="29" state="rrrrrrGGGGggrrrrrrGGGGgg" minDur="8" maxDur="50"/>
        <phase duration="5"  state="rrrrrryyyyggrrrrrryyyygg"/>
        <phase duration="6"  state="rrrrrrrrrrGGrrrrrrrrrrGG" minDur="8" maxDur="50"/>
        <phase duration="5"  state="rrrrrrrrrryyrrrrrrrrrryy"/>
    </tlLogic>

    <junction id="0" type="traffic_light" x="510.00" y="510.00" incLanes="4i_0 4i_1 4i_2 2i_0 2i_1 2i_2 3i_0 3i_1 3i_2 1i_0 1i_1 1i_2" intLanes=":0_0_0 :0_1_0 :0_1_1 :0_1_2 :0_24_0 :0_24_1 :0_6_0 :0_7_0 :0_7_1 :0_7_2 :0_25_0 :0_25_1 :0_12_0 :0_13_0 :0_13_1 :0_13_2 :0_26_0 :0_26_1 :0_18_0 :0_19_0 :0_19_1 :0_19_2 :0_27_0 :0_27_1" shape="500.40,523.60 519.60,523.60 520.04,521.38 520.60,520.60 521.38,520.04 522.38,519.71 523.60,519.60 523.60,500.40 521.38,499.96 520.60,499.40 520.04,498.62 519.71,497.62 519.60,496.40 500.40,496.40 499.96,498.62 499.40,499.40 498.62,499.96 497.62,500.29 496.40,500.40 496.40,519.60 498.62,520.04 499.40,520.60 499.96,521.38 500.29,522.38">
        <request index="0"  response="000000000000000000000000" foes="000000000000001110000000" cont="0"/>
        <request index="1"  response="110000000000000000000000" foes="111111110000111110000000" cont="0"/>
        <request index="2"  response="110000000000010000000000" foes="111111110000111110000000" cont="0"/>
        <request index="3"  response="110000000000110000000000" foes="111111110000111110000000" cont="0"/>
        <request index="4"  response="110000001110110000000000" foes="111110001110111110000000" cont="1"/>
        <request index="5"  response="110000001110110000000000" foes="111110001110111110000000" cont="1"/>
        <request index="6"  response="000000001110000000000000" foes="000000001110000000000000" cont="0"/>
        <request index="7"  response="000000111110000000111111" foes="110000111110000000111111" cont="0"/>
        <request index="8"  response="000000111110000000111111" foes="110000111110000000111111" cont="0"/>
        <request index="9"  response="000000111110000000111111" foes="110000111110000000111111" cont="0"/>
        <request index="10" response="001110111110000000111110" foes="001110111110000000111110" cont="1"/>
        <request index="11" response="001110111110000000111110" foes="001110111110000000111110" cont="1"/>
        <request index="12" response="000000000000000000000000" foes="001110000000000000000000" cont="0"/>
        <request index="13" response="000000000000110000000000" foes="111110000000111111110000" cont="0"/>
        <request index="14" response="010000000000110000000000" foes="111110000000111111110000" cont="0"/>
        <request index="15" response="110000000000110000000000" foes="111110000000111111110000" cont="0"/>
        <request index="16" response="110000000000110000001110" foes="111110000000111110001110" cont="1"/>
        <request index="17" response="110000000000110000001110" foes="111110000000111110001110" cont="1"/>
        <request index="18" response="000000000000000000001110" foes="000000000000000000001110" cont="0"/>
        <request index="19" response="000000111111000000111110" foes="000000111111110000111110" cont="0"/>
        <request index="20" response="000000111111000000111110" foes="000000111111110000111110" cont="0"/>
        <request index="21" response="000000111111000000111110" foes="000000111111110000111110" cont="0"/>
        <request index="22" response="000000111110001110111110" foes="000000111110001110111110" cont="1"/>
        <request index="23" response="000000111110001110111110" foes="000000111110001110111110" cont="1"/>
    </junction>
    <junction id="1" type="priority" x="10.00" y="510.00" incLanes="1o_0 1o_1 1o_2 51o_0 51o_1 51o_2" intLanes=":1_0_0 :1_0_1 :1_0_2 :1_3_0 :1_3_1 :1_3_2" shape="10.00,519.60 10.00,500.40 10.00,519.60">
        <request index="0" response="000000" foes="000000" cont="0"/>
        <request index="1" response="000000" foes="000000" cont="0"/>
        <request index="2" response="000000" foes="000000" cont="0"/>
        <request index="3" response="000000" foes="000000" cont="0"/>
        <request index="4" response="000000" foes="000000" cont="0"/>
        <request index="5" response="000000" foes="000000" cont="0"/>
    </junction>
    <junction id="2" type="priority" x="1010.00" y="510.00" incLanes="52o_0 52o_1 52o_2 2o_0 2o_1 2o_2" intLanes=":2_0_0 :2_0_1 :2_0_2 :2_3_0 :2_3_1 :2_3_2" shape="1010.00,519.60 1010.00,500.40 1010.00,519.60">
        <request index="0" response="000000" foes="000000" cont="0"/>
        <request index="1" response="000000" foes="000000" cont="0"/>
        <request index="2" response="000000" foes="000000" cont="0"/>
        <request index="3" response="000000" foes="000000" cont="0"/>
        <request index="4" response="000000" foes="000000" cont="0"/>
        <request index="5" response="000000" foes="000000" cont="0"/>
    </junction>
    <junction id="3" type="priority" x="510.00" y="10.00" incLanes="3o_0 3o_1 3o_2 53o_0 53o_1 53o_2" intLanes=":3_0_0 :3_0_1 :3_0_2 :3_3_0 :3_3_1 :3_3_2" shape="500.40,10.00 519.60,10.00 500.40,10.00">
        <request index="0" response="000000" foes="000000" cont="0"/>
        <request index="1" response="000000" foes="000000" cont="0"/>
        <request index="2" response="000000" foes="000000" cont="0"/>
        <request index="3" response="000000" foes="000000" cont="0"/>
        <request index="4" response="000000" foes="000000" cont="0"/>
        <request index="5" response="000000" foes="000000" cont="0"/>
    </junction>
    <junction id="4" type="priority" x="510.00" y="1010.00" incLanes="54o_0 54o_1 54o_2 4o_0 4o_1 4o_2" intLanes=":4_0_0 :4_0_1 :4_0_2 :4_3_0 :4_3_1 :4_3_2" shape="500.40,1010.00 519.60,1010.00 500.40,1010.00">
        <request index="0" response="000000" foes="000000" cont="0"/>
        <request index="1" response="000000" foes="000000" cont="0"/>
        <request index="2" response="000000" foes="000000" cont="0"/>
        <request index="3" response="000000" foes="000000" cont="0"/>
        <request index="4" response="000000" foes="000000" cont="0"/>
        <request index="5" response="000000" foes="000000" cont="0"/>
    </junction>
    <junction id="51" type="priority" x="0.00" y="510.00" incLanes="51i_0 51i_1 51i_2" intLanes=":51_0_0" shape="0.00,510.00 0.00,519.60 0.00,510.00">
        <request index="0" response="0" foes="0" cont="0"/>
    </junction>
    <junction id="52" type="priority" x="1020.00" y="510.00" incLanes="52i_0 52i_1 52i_2" intLanes=":52_0_0" shape="1020.00,510.00 1020.00,500.40 1020.00,510.00">
        <request index="0" response="0" foes="0" cont="0"/>
    </junction>
    <junction id="53" type="priority" x="510.00" y="0.00" incLanes="53i_0 53i_1 53i_2" intLanes=":53_0_0" shape="510.00,0.00 500.40,0.00 510.00,0.00">
        <request index="0" response="0" foes="0" cont="0"/>
    </junction>
    <junction id="54" type="priority" x="510.00" y="1020.00" incLanes="54i_0 54i_1 54i_2" intLanes=":54_0_0" shape="510.00,1020.00 519.60,1020.00 510.00,1020.00">
        <request index="0" response="0" foes="0" cont="0"/>
    </junction>

    <junction id=":0_24_0" type="internal" x="509.58" y="515.08" incLanes=":0_4_0 3i_0 3i_1" intLanes=":0_7_0 :0_7_1 :0_7_2 :0_10_0 :0_10_1 :0_12_0 :0_13_0 :0_13_1 :0_13_2 :0_19_0 :0_19_1 :0_19_2 :0_22_0 :0_22_1"/>
    <junction id=":0_24_1" type="internal" x="509.45" y="516.78" incLanes=":0_4_1 3i_0 3i_1" intLanes=":0_7_0 :0_7_1 :0_7_2 :0_10_0 :0_10_1 :0_12_0 :0_13_0 :0_13_1 :0_13_2 :0_19_0 :0_19_1 :0_19_2 :0_22_0 :0_22_1"/>
    <junction id=":0_25_0" type="internal" x="515.08" y="510.42" incLanes=":0_10_0 1i_0 1i_1" intLanes=":0_1_0 :0_1_1 :0_1_2 :0_4_0 :0_4_1 :0_13_0 :0_13_1 :0_13_2 :0_16_0 :0_16_1 :0_18_0 :0_19_0 :0_19_1 :0_19_2"/>
    <junction id=":0_25_1" type="internal" x="516.78" y="510.55" incLanes=":0_10_1 1i_0 1i_1" intLanes=":0_1_0 :0_1_1 :0_1_2 :0_4_0 :0_4_1 :0_13_0 :0_13_1 :0_13_2 :0_16_0 :0_16_1 :0_18_0 :0_19_0 :0_19_1 :0_19_2"/>
    <junction id=":0_26_0" type="internal" x="510.42" y="504.92" incLanes=":0_16_0 4i_0 4i_1" intLanes=":0_0_0 :0_1_0 :0_1_1 :0_1_2 :0_7_0 :0_7_1 :0_7_2 :0_10_0 :0_10_1 :0_19_0 :0_19_1 :0_19_2 :0_22_0 :0_22_1"/>
    <junction id=":0_26_1" type="internal" x="510.55" y="503.22" incLanes=":0_16_1 4i_0 4i_1" intLanes=":0_0_0 :0_1_0 :0_1_1 :0_1_2 :0_7_0 :0_7_1 :0_7_2 :0_10_0 :0_10_1 :0_19_0 :0_19_1 :0_19_2 :0_22_0 :0_22_1"/>
    <junction id=":0_27_0" type="internal" x="504.92" y="509.58" incLanes=":0_22_0 2i_0 2i_1" intLanes=":0_1_0 :0_1_1 :0_1_2 :0_4_0 :0_4_1 :0_6_0 :0_7_0 :0_7_1 :0_7_2 :0_13_0 :0_13_1 :0_13_2 :0_16_0 :0_16_1"/>
    <junction id=":0_27_1" type="internal" x="503.22" y="509.45" incLanes=":0_22_1 2i_0 2i_1" intLanes=":0_1_0 :0_1_1 :0_1_2 :0_4_0 :0_4_1 :0_6_0 :0_7_0 :0_7_1 :0_7_2 :0_13_0 :0_13_1 :0_13_2 :0_16_0 :0_16_1"/>

    <connection from="1i" to="3o" fromLane="0" toLane="0" via=":0_18_0" tl="0" linkIndex="18" dir="r" state="o"/>
    <connection from="1i" to="2o" fromLane="0" toLane="0" via=":0_19_0" tl="0" linkIndex="19" dir="s" state="o"/>
    <connection from="1i" to="2o" fromLane="1" toLane="1" via=":0_19_1" tl="0" linkIndex="20" dir="s" state="o"/>
    <connection from="1i" to="2o" fromLane="1" toLane="2" via=":0_19_2" tl="0" linkIndex="21" dir="s" state="o"/>
    <connection from="1i" to="4o" fromLane="2" toLane="1" via=":0_22_0" tl="0" linkIndex="22" dir="l" state="o"/>
    <connection from="1i" to="4o" fromLane="2" toLane="2" via=":0_22_1" tl="0" linkIndex="23" dir="l" state="o"/>
    <connection from="1o" to="51i" fromLane="0" toLane="0" via=":1_0_0" dir="s" state="M"/>
    <connection from="1o" to="51i" fromLane="1" toLane="1" via=":1_0_1" dir="s" state="M"/>
    <connection from="1o" to="51i" fromLane="2" toLane="2" via=":1_0_2" dir="s" state="M"/>
    <connection from="2i" to="4o" fromLane="0" toLane="0" via=":0_6_0" tl="0" linkIndex="6" dir="r" state="o"/>
    <connection from="2i" to="1o" fromLane="0" toLane="0" via=":0_7_0" tl="0" linkIndex="7" dir="s" state="o"/>
    <connection from="2i" to="1o" fromLane="1" toLane="1" via=":0_7_1" tl="0" linkIndex="8" dir="s" state="o"/>
    <connection from="2i" to="1o" fromLane="1" toLane="2" via=":0_7_2" tl="0" linkIndex="9" dir="s" state="o"/>
    <connection from="2i" to="3o" fromLane="2" toLane="1" via=":0_10_0" tl="0" linkIndex="10" dir="l" state="o"/>
    <connection from="2i" to="3o" fromLane="2" toLane="2" via=":0_10_1" tl="0" linkIndex="11" dir="l" state="o"/>
    <connection from="2o" to="52i" fromLane="0" toLane="0" via=":2_3_0" dir="s" state="M"/>
    <connection from="2o" to="52i" fromLane="1" toLane="1" via=":2_3_1" dir="s" state="M"/>
    <connection from="2o" to="52i" fromLane="2" toLane="2" via=":2_3_2" dir="s" state="M"/>
    <connection from="3i" to="2o" fromLane="0" toLane="0" via=":0_12_0" tl="0" linkIndex="12" dir="r" state="O"/>
    <connection from="3i" to="4o" fromLane="0" toLane="0" via=":0_13_0" tl="0" linkIndex="13" dir="s" state="O"/>
    <connection from="3i" to="4o" fromLane="1" toLane="1" via=":0_13_1" tl="0" linkIndex="14" dir="s" state="O"/>
    <connection from="3i" to="4o" fromLane="1" toLane="2" via=":0_13_2" tl="0" linkIndex="15" dir="s" state="O"/>
    <connection from="3i" to="1o" fromLane="2" toLane="1" via=":0_16_0" tl="0" linkIndex="16" dir="l" state="o"/>
    <connection from="3i" to="1o" fromLane="2" toLane="2" via=":0_16_1" tl="0" linkIndex="17" dir="l" state="o"/>
    <connection from="3o" to="53i" fromLane="0" toLane="0" via=":3_0_0" dir="s" state="M"/>
    <connection from="3o" to="53i" fromLane="1" toLane="1" via=":3_0_1" dir="s" state="M"/>
    <connection from="3o" to="53i" fromLane="2" toLane="2" via=":3_0_2" dir="s" state="M"/>
    <connection from="4i" to="1o" fromLane="0" toLane="0" via=":0_0_0" tl="0" linkIndex="0" dir="r" state="O"/>
    <connection from="4i" to="3o" fromLane="0" toLane="0" via=":0_1_0" tl="0" linkIndex="1" dir="s" state="O"/>
    <connection from="4i" to="3o" fromLane="1" toLane="1" via=":0_1_1" tl="0" linkIndex="2" dir="s" state="O"/>
    <connection from="4i" to="3o" fromLane="1" toLane="2" via=":0_1_2" tl="0" linkIndex="3" dir="s" state="O"/>
    <connection from="4i" to="2o" fromLane="2" toLane="1" via=":0_4_0" tl="0" linkIndex="4" dir="l" state="o"/>
    <connection from="4i" to="2o" fromLane="2" toLane="2" via=":0_4_1" tl="0" linkIndex="5" dir="l" state="o"/>
    <connection from="4o" to="54i" fromLane="0" toLane="0" via=":4_3_0" dir="s" state="M"/>
    <connection from="4o" to="54i" fromLane="1" toLane="1" via=":4_3_1" dir="s" state="M"/>
    <connection from="4o" to="54i" fromLane="2" toLane="2" via=":4_3_2" dir="s" state="M"/>
    <connection from="51i" to="51o" fromLane="2" toLane="2" via=":51_0_0" dir="t" state="M"/>
    <connection from="51o" to="1i" fromLane="0" toLane="0" via=":1_3_0" dir="s" state="M"/>
    <connection from="51o" to="1i" fromLane="1" toLane="1" via=":1_3_1" dir="s" state="M"/>
    <connection from="51o" to="1i" fromLane="2" toLane="2" via=":1_3_2" dir="s" state="M"/>
    <connection from="52i" to="52o" fromLane="2" toLane="2" via=":52_0_0" dir="t" state="M"/>
    <connection from="52o" to="2i" fromLane="0" toLane="0" via=":2_0_0" dir="s" state="M"/>
    <connection from="52o" to="2i" fromLane="1" toLane="1" via=":2_0_1" dir="s" state="M"/>
    <connection from="52o" to="2i" fromLane="2" toLane="2" via=":2_0_2" dir="s" state="M"/>
    <connection from="53i" to="53o" fromLane="2" toLane="2" via=":53_0_0" dir="t" state="M"/>
    <connection from="53o" to="3i" fromLane="0" toLane="0" via=":3_3_0" dir="s" state="M"/>
    <connection from="53o" to="3i" fromLane="1" toLane="1" via=":3_3_1" dir="s" state="M"/>
    <connection from="53o" to="3i" fromLane="2" toLane="2" via=":3_3_2" dir="s" state="M"/>