<additional>
	<e1Detector id="0" lane="4i_1" pos="450" freq="30" file="cross.out" friendlyPos="x"/>
	<tlLogic id="0" type="static" programID="my_program" offset="0">
	   <phase duration="33" state="GGGGrrrrrrrrGGGGrrrrrrrr"/>
	   <phase duration="6" state="yyyyrrrrrrrryyyyrrrrrrrr"/>
	   <phase duration="33" state="rrrrGGGrrrrrrrrrGGGrrrrr"/>
	   <phase duration="6" state="rrrryyyrrrrrrrrryyyrrrrr"/>
	   <phase duration="33" state="rrrrrrGGGGrrrrrrrrGGGGrr"/>
	   <phase duration="6" state="rrrrrryyyyrrrrrrrryyyyrr"/>
	   <phase duration="33" state="GrrrrrrrrrGGGrrrrrrrrrGG"/>
	   <phase duration="6" state="yrrrrrrrrryyyrrrrrrrrryy"/>
    </tlLogic>
</additional>