<?xml version="1.0" encoding="UTF-8"?>

<!-- generated on 2026-04-09 13:20:24.751095 by Eclipse SUMO randomTrips.py UNKNOWN
<configuration>
    <net-file value="map.net.xml"/>
    <output-trip-file value="bikes.rou.xml"/>
    <prefix value="bike"/>
    <trip-attributes value="type=&quot;my_bike&quot;"/>
    <edge-permission value="bicycle"/>
    <period value="50.0"/>
</configuration>
-->

<routes xmlns:xsi="http://www.w3.org/2001/XMLSchema-instance" xsi:noNamespaceSchemaLocation="http://sumo.dlr.de/xsd/routes_file.xsd">
    <trip id="bike0" depart="0.00" from="1445927127" to="-1445926303#1" type="my_bike"/>
    <trip id="bike1" depart="50.00" from="-469966399#5" to="-469966399#3" type="my_bike"/>
    <trip id="bike2" depart="100.00" from="469966399#3" to="469966399#1" type="my_bike"/>
    <trip id="bike3" depart="150.00" from="475071113#4" to="-1445926306#0" type="my_bike"/>
    <trip id="bike4" depart="200.00" from="-475071113#5" to="-1445926303#2" type="my_bike"/>
    <trip id="bike5" depart="250.00" from="-469966399#12" to="1445926303#3" type="my_bike"/>
    <trip id="bike6" depart="300.00" from="-1445926303#0" to="-469966399#12" type="my_bike"/>
    <trip id="bike7" depart="350.00" from="1445927129" to="1445926305#1" type="my_bike"/>
    <trip id="bike8" depart="400.00" from="-469966399#12" to="1445926308#0" type="my_bike"/>
    <trip id="bike9" depart="450.00" from="469966400#1" to="-1018228073#0" type="my_bike"/>
    <trip id="bike10" depart="500.00" from="469966400#0" to="469966399#11" type="my_bike"/>
    <trip id="bike11" depart="550.00" from="-469966400#2" to="-469966399#0" type="my_bike"/>
    <trip id="bike12" depart="600.00" from="695769603" to="-475071113#0" type="my_bike"/>
    <trip id="bike13" depart="650.00" from="-1445926305#1" to="-1445926306#1" type="my_bike"/>
    <trip id="bike14" depart="700.00" from="475071113#0" to="1445926308#1" type="my_bike"/>
    <trip id="bike15" depart="750.00" from="469966400#1" to="469966399#14" type="my_bike"/>
    <trip id="bike16" depart="800.00" from="1445926304" to="695769604" type="my_bike"/>
    <trip id="bike17" depart="850.00" from="-475071113#0" to="1445926305#2" type="my_bike"/>
    <trip id="bike18" depart="900.00" from="469966400#3" to="1445926311" type="my_bike"/>
    <trip id="bike19" depart="950.00" from="475071113#1" to="1445926307" type="my_bike"/>
    <trip id="bike20" depart="1000.00" from="469966399#12" to="-1445926303#3" type="my_bike"/>
    <trip id="bike21" depart="1050.00" from="-469966399#13" to="-469966400#0" type="my_bike"/>
    <trip id="bike22" depart="1100.00" from="-1445926305#0" to="-469966399#4" type="my_bike"/>
    <trip id="bike23" depart="1150.00" from="-1445926305#2" to="-469966399#8" type="my_bike"/>
    <trip id="bike24" depart="1200.00" from="1445927127" to="-475071113#2" type="my_bike"/>
    <trip id="bike25" depart="1250.00" from="-475071113#0" to="-469966399#13" type="my_bike"/>
    <trip id="bike26" depart="1300.00" from="-469966399#4" to="527232518#1" type="my_bike"/>
    <trip id="bike27" depart="1350.00" from="1445927129" to="1445926309" type="my_bike"/>
    <trip id="bike28" depart="1400.00" from="-1445927128" to="469966399#14" type="my_bike"/>
    <trip id="bike29" depart="1450.00" from="-1445927127" to="-475071113#4" type="my_bike"/>
    <trip id="bike30" depart="1500.00" from="798234860#0" to="1445927128" type="my_bike"/>
    <trip id="bike31" depart="1550.00" from="1445926305#1" to="469966399#10" type="my_bike"/>
    <trip id="bike32" depart="1600.00" from="469966400#4" to="469966399#6" type="my_bike"/>
    <trip id="bike33" depart="1650.00" from="-469966399#13" to="-1445926303#2" type="my_bike"/>
    <trip id="bike34" depart="1700.00" from="-469966399#9" to="-469966399#7" type="my_bike"/>
    <trip id="bike35" depart="1750.00" from="-469966399#11" to="695769583" type="my_bike"/>
    <trip id="bike36" depart="1800.00" from="475071113#3" to="-469966400#2" type="my_bike"/>
    <trip id="bike37" depart="1850.00" from="1445927130" to="-475071113#6" type="my_bike"/>
    <trip id="bike38" depart="1900.00" from="527232518#0" to="1445926300" type="my_bike"/>
    <trip id="bike39" depart="1950.00" from="-469966399#4" to="-469966399#5" type="my_bike"/>
    <trip id="bike40" depart="2000.00" from="1445926305#1" to="-469966399#7" type="my_bike"/>
    <trip id="bike41" depart="2050.00" from="1445926306#1" to="475071113#4" type="my_bike"/>
    <trip id="bike42" depart="2100.00" from="-475071113#3" to="-469966399#2" type="my_bike"/>
    <trip id="bike43" depart="2150.00" from="798234860#1" to="1445926303#3" type="my_bike"/>
    <trip id="bike44" depart="2200.00" from="-1445926305#1" to="-1445926303#3" type="my_bike"/>
    <trip id="bike45" depart="2250.00" from="-1445926306#0" to="1445927127" type="my_bike"/>
    <trip id="bike46" depart="2300.00" from="469966399#9" to="-527232518#1" type="my_bike"/>
    <trip id="bike47" depart="2350.00" from="-1445926303#4" to="-475071113#4" type="my_bike"/>
    <trip id="bike48" depart="2400.00" from="798234860#1" to="1445926305#0" type="my_bike"/>
    <trip id="bike49" depart="2450.00" from="695769605" to="475071113#0" type="my_bike"/>
    <trip id="bike50" depart="2500.00" from="-1445926300" to="469966399#13" type="my_bike"/>
    <trip id="bike51" depart="2550.00" from="469966399#10" to="1445926305#0" type="my_bike"/>
    <trip id="bike52" depart="2600.00" from="-469966399#4" to="1445927128" type="my_bike"/>
    <trip id="bike53" depart="2650.00" from="-1445926306#0" to="-798234860#1" type="my_bike"/>
    <trip id="bike54" depart="2700.00" from="-527232518#1" to="695769602" type="my_bike"/>
    <trip id="bike55" depart="2750.00" from="475071113#3" to="-469966399#7" type="my_bike"/>
    <trip id="bike56" depart="2800.00" from="1445926303#0" to="-469966399#10" type="my_bike"/>
    <trip id="bike57" depart="2850.00" from="527232518#0" to="475071113#1" type="my_bike"/>
    <trip id="bike58" depart="2900.00" from="-469966399#7" to="1445927128" type="my_bike"/>
    <trip id="bike59" depart="2950.00" from="1445926308#0" to="-1445927129" type="my_bike"/>
    <trip id="bike60" depart="3000.00" from="469966399#6" to="1445926305#1" type="my_bike"/>
    <trip id="bike61" depart="3050.00" from="469966399#8" to="1445926305#0" type="my_bike"/>
    <trip id="bike62" depart="3100.00" from="-1018228073#1" to="-469966400#3" type="my_bike"/>
    <trip id="bike63" depart="3150.00" from="-1445926303#0" to="527232518#0" type="my_bike"/>
    <trip id="bike64" depart="3200.00" from="475071113#3" to="469966400#2" type="my_bike"/>
    <trip id="bike65" depart="3250.00" from="-469966399#8" to="-1445926305#0" type="my_bike"/>
    <trip id="bike66" depart="3300.00" from="475071113#3" to="695769583" type="my_bike"/>
    <trip id="bike67" depart="3350.00" from="-1445926305#0" to="1445926303#1" type="my_bike"/>
    <trip id="bike68" depart="3400.00" from="-1445926304" to="469966399#5" type="my_bike"/>
    <trip id="bike69" depart="3450.00" from="469966399#6" to="-1445926309" type="my_bike"/>
    <trip id="bike70" depart="3500.00" from="-798234860#1" to="1445926305#2" type="my_bike"/>
    <trip id="bike71" depart="3550.00" from="-469966399#4" to="475071113#1" type="my_bike"/>
</routes>
