<?xml version="1.0" encoding="UTF-8"?>

<!-- generated on 2026-04-09 13:24:11.288437 by Eclipse SUMO randomTrips.py UNKNOWN
<configuration>
    <net-file value="map.net.xml"/>
    <output-trip-file value="cars.rou.xml"/>
    <prefix value="car"/>
    <trip-attributes value="type=&quot;my_car&quot;"/>
    <edge-permission value="passenger"/>
    <period value="20.0"/>
</configuration>
-->

<routes xmlns:xsi="http://www.w3.org/2001/XMLSchema-instance" xsi:noNamespaceSchemaLocation="http://sumo.dlr.de/xsd/routes_file.xsd">
    <trip id="car0" depart="0.00" from="1445927127" to="-1445926303#1" type="my_car"/>
    <trip id="car1" depart="20.00" from="-469966399#5" to="-469966399#3" type="my_car"/>
    <trip id="car2" depart="40.00" from="469966399#3" to="469966399#1" type="my_car"/>
    <trip id="car3" depart="60.00" from="475071113#4" to="-1445926306#0" type="my_car"/>
    <trip id="car4" depart="80.00" from="-475071113#5" to="-1445926303#2" type="my_car"/>
    <trip id="car5" depart="100.00" from="-469966399#12" to="1445926303#3" type="my_car"/>
    <trip id="car6" depart="120.00" from="-1445926303#0" to="-469966399#12" type="my_car"/>
    <trip id="car7" depart="140.00" from="1445927129" to="1445926305#1" type="my_car"/>
    <trip id="car8" depart="160.00" from="-469966399#12" to="1445926308#0" type="my_car"/>
    <trip id="car9" depart="180.00" from="469966400#1" to="-1018228073#0" type="my_car"/>
    <trip id="car10" depart="200.00" from="469966400#0" to="469966399#11" type="my_car"/>
    <trip id="car11" depart="220.00" from="-469966400#2" to="-469966399#0" type="my_car"/>
    <trip id="car12" depart="240.00" from="695769603" to="-475071113#0" type="my_car"/>
    <trip id="car13" depart="260.00" from="-1445926305#1" to="-1445926306#1" type="my_car"/>
    <trip id="car14" depart="280.00" from="475071113#0" to="1445926308#1" type="my_car"/>
    <trip id="car15" depart="300.00" from="469966400#1" to="469966399#14" type="my_car"/>
    <trip id="car16" depart="320.00" from="1445926304" to="695769604" type="my_car"/>
    <trip id="car17" depart="340.00" from="-475071113#0" to="1445926305#2" type="my_car"/>
    <trip id="car18" depart="360.00" from="469966400#3" to="1445926311" type="my_car"/>
    <trip id="car19" depart="380.00" from="475071113#1" to="1445926307" type="my_car"/>
    <trip id="car20" depart="400.00" from="469966399#12" to="-1445926303#3" type="my_car"/>
    <trip id="car21" depart="420.00" from="-469966399#13" to="-469966400#0" type="my_car"/>
    <trip id="car22" depart="440.00" from="-1445926305#0" to="-469966399#4" type="my_car"/>
    <trip id="car23" depart="460.00" from="-1445926305#2" to="-469966399#8" type="my_car"/>
    <trip id="car24" depart="480.00" from="1445927127" to="-475071113#2" type="my_car"/>
    <trip id="car25" depart="500.00" from="-475071113#0" to="-469966399#13" type="my_car"/>
    <trip id="car26" depart="520.00" from="-469966399#4" to="527232518#1" type="my_car"/>
    <trip id="car27" depart="540.00" from="1445927129" to="1445926309" type="my_car"/>
    <trip id="car28" depart="560.00" from="-1445927128" to="469966399#14" type="my_car"/>
    <trip id="car29" depart="580.00" from="-1445927127" to="-475071113#4" type="my_car"/>
    <trip id="car30" depart="600.00" from="798234860#0" to="1445927128" type="my_car"/>
    <trip id="car31" depart="620.00" from="1445926305#1" to="469966399#10" type="my_car"/>
    <trip id="car32" depart="640.00" from="469966400#4" to="469966399#6" type="my_car"/>
    <trip id="car33" depart="660.00" from="-469966399#13" to="-1445926303#2" type="my_car"/>
    <trip id="car34" depart="680.00" from="-469966399#9" to="-469966399#7" type="my_car"/>
    <trip id="car35" depart="700.00" from="-469966399#11" to="695769583" type="my_car"/>
    <trip id="car36" depart="720.00" from="475071113#3" to="-469966400#2" type="my_car"/>
    <trip id="car37" depart="740.00" from="1445927130" to="-475071113#6" type="my_car"/>
    <trip id="car38" depart="760.00" from="527232518#0" to="1445926300" type="my_car"/>
    <trip id="car39" depart="780.00" from="-469966399#4" to="-469966399#5" type="my_car"/>
    <trip id="car40" depart="800.00" from="1445926305#1" to="-469966399#7" type="my_car"/>
    <trip id="car41" depart="820.00" from="1445926306#1" to="475071113#4" type="my_car"/>
    <trip id="car42" depart="840.00" from="-475071113#3" to="-469966399#2" type="my_car"/>
    <trip id="car43" depart="860.00" from="798234860#1" to="1445926303#3" type="my_car"/>
    <trip id="car44" depart="880.00" from="-1445926305#1" to="-1445926303#3" type="my_car"/>
    <trip id="car45" depart="900.00" from="-1445926306#0" to="1445927127" type="my_car"/>
    <trip id="car46" depart="920.00" from="469966399#9" to="-527232518#1" type="my_car"/>
    <trip id="car47" depart="940.00" from="-1445926303#4" to="-475071113#4" type="my_car"/>
    <trip id="car48" depart="960.00" from="798234860#1" to="1445926305#0" type="my_car"/>
    <trip id="car49" depart="980.00" from="695769605" to="475071113#0" type="my_car"/>
    <trip id="car50" depart="1000.00" from="-1445926300" to="469966399#13" type="my_car"/>
    <trip id="car51" depart="1020.00" from="469966399#10" to="1445926305#0" type="my_car"/>
    <trip id="car52" depart="1040.00" from="-469966399#4" to="1445927128" type="my_car"/>
    <trip id="car53" depart="1060.00" from="-1445926306#0" to="-798234860#1" type="my_car"/>
    <trip id="car54" depart="1080.00" from="-527232518#1" to="695769602" type="my_car"/>
    <trip id="car55" depart="1100.00" from="475071113#3" to="-469966399#7" type="my_car"/>
    <trip id="car56" depart="1120.00" from="1445926303#0" to="-469966399#10" type="my_car"/>
    <trip id="car57" depart="1140.00" from="527232518#0" to="475071113#1" type="my_car"/>
    <trip id="car58" depart="1160.00" from="-469966399#7" to="1445927128" type="my_car"/>
    <trip id="car59" depart="1180.00" from="1445926308#0" to="-1445927129" type="my_car"/>
    <trip id="car60" depart="1200.00" from="469966399#6" to="1445926305#1" type="my_car"/>
    <trip id="car61" depart="1220.00" from="469966399#8" to="1445926305#0" type="my_car"/>
    <trip id="car62" depart="1240.00" from="-1018228073#1" to="-469966400#3" type="my_car"/>
    <trip id="car63" depart="1260.00" from="-1445926303#0" to="527232518#0" type="my_car"/>
    <trip id="car64" depart="1280.00" from="475071113#3" to="469966400#2" type="my_car"/>
    <trip id="car65" depart="1300.00" from="-469966399#8" to="-1445926305#0" type="my_car"/>
    <trip id="car66" depart="1320.00" from="475071113#3" to="695769583" type="my_car"/>
    <trip id="car67" depart="1340.00" from="-1445926305#0" to="1445926303#1" type="my_car"/>
    <trip id="car68" depart="1360.00" from="-1445926304" to="469966399#5" type="my_car"/>
    <trip id="car69" depart="1380.00" from="469966399#6" to="-1445926309" type="my_car"/>
    <trip id="car70" depart="1400.00" from="-798234860#1" to="1445926305#2" type="my_car"/>
    <trip id="car71" depart="1420.00" from="-469966399#4" to="475071113#1" type="my_car"/>
    <trip id="car72" depart="1440.00" from="-475071113#5" to="-469966399#2" type="my_car"/>
    <trip id="car73" depart="1460.00" from="1445926304" to="469966399#14" type="my_car"/>
    <trip id="car74" depart="1480.00" from="-469966399#10" to="-469966400#2" type="my_car"/>
    <trip id="car75" depart="1500.00" from="798234860#1" to="1445927130" type="my_car"/>
    <trip id="car76" depart="1520.00" from="-527232518#0" to="1445926303#4" type="my_car"/>
    <trip id="car77" depart="1540.00" from="-1445926306#1" to="-469966399#3" type="my_car"/>
    <trip id="car78" depart="1560.00" from="-469966400#1" to="1445926308#0" type="my_car"/>
    <trip id="car79" depart="1580.00" from="-469966399#13" to="-469966399#2" type="my_car"/>
    <trip id="car80" depart="1600.00" from="-1445926304" to="1445927127" type="my_car"/>
    <trip id="car81" depart="1620.00" from="-469966399#13" to="475071113#5" type="my_car"/>
    <trip id="car82" depart="1640.00" from="475071113#1" to="-1445926305#1" type="my_car"/>
    <trip id="car83" depart="1660.00" from="-469966399#14" to="469966399#0" type="my_car"/>
    <trip id="car84" depart="1680.00" from="-469966399#12" to="-1445926309" type="my_car"/>
    <trip id="car85" depart="1700.00" from="695769583" to="1445926306#1" type="my_car"/>
    <trip id="car86" depart="1720.00" from="-798234860#1" to="469966399#7" type="my_car"/>
    <trip id="car87" depart="1740.00" from="469966400#1" to="-469966399#11" type="my_car"/>
    <trip id="car88" depart="1760.00" from="-1445926305#1" to="-798234860#0" type="my_car"/>
    <trip id="car89" depart="1780.00" from="-475071113#5" to="1445926302" type="my_car"/>
    <trip id="car90" depart="1800.00" from="469966399#3" to="469966399#1" type="my_car"/>
    <trip id="car91" depart="1820.00" from="798234860#0" to="-1445926306#1" type="my_car"/>
    <trip id="car92" depart="1840.00" from="-475071113#3" to="-475071113#0" type="my_car"/>
    <trip id="car93" depart="1860.00" from="475071113#1" to="-469966399#5" type="my_car"/>
    <trip id="car94" depart="1880.00" from="-469966399#1" to="1018228073#1" type="my_car"/>
    <trip id="car95" depart="1900.00" from="-475071113#5" to="-469966399#8" type="my_car"/>
    <trip id="car96" depart="1920.00" from="-469966399#2" to="527232518#0" type="my_car"/>
    <trip id="car97" depart="1940.00" from="-527232518#0" to="475071113#0" type="my_car"/>
    <trip id="car98" depart="1960.00" from="1445926305#0" to="-1445926304" type="my_car"/>
    <trip id="car99" depart="1980.00" from="798234860#1" to="469966400#2" type="my_car"/>
    <trip id="car100" depart="2000.00" from="695769604" to="527232518#0" type="my_car"/>
    <trip id="car101" depart="2020.00" from="475071113#0" to="-469966399#1" type="my_car"/>
    <trip id="car102" depart="2040.00" from="1445926302" to="-469966399#2" type="my_car"/>
    <trip id="car103" depart="2060.00" from="-475071113#3" to="-1445926305#0" type="my_car"/>
    <trip id="car104" depart="2080.00" from="-475071113#1" to="695769605" type="my_car"/>
    <trip id="car105" depart="2100.00" from="-469966399#4" to="469966399#7" type="my_car"/>
    <trip id="car106" depart="2120.00" from="-527232518#1" to="-527232518#1" type="my_car"/>
    <trip id="car107" depart="2140.00" from="695769603" to="798234860#1" type="my_car"/>
    <trip id="car108" depart="2160.00" from="1445926305#1" to="469966399#13" type="my_car"/>
    <trip id="car109" depart="2180.00" from="-1445926309" to="-469966400#0" type="my_car"/>
    <trip id="car110" depart="2200.00" from="695769604" to="1445926307" type="my_car"/>
    <trip id="car111" depart="2220.00" from="1445926304" to="469966399#3" type="my_car"/>
    <trip id="car112" depart="2240.00" from="-1445926303#3" to="1445926307" type="my_car"/>
    <trip id="car113" depart="2260.00" from="1445926303#0" to="469966400#4" type="my_car"/>
    <trip id="car114" depart="2280.00" from="-1445927127" to="695769602" type="my_car"/>
    <trip id="car115" depart="2300.00" from="-1445926305#0" to="-469966399#11" type="my_car"/>
    <trip id="car116" depart="2320.00" from="1445926307" to="469966399#1" type="my_car"/>
    <trip id="car117" depart="2340.00" from="-469966399#14" to="-1445926308#1" type="my_car"/>
    <trip id="car118" depart="2360.00" from="475071113#4" to="-469966399#5" type="my_car"/>
    <trip id="car119" depart="2380.00" from="1445926307" to="1445926311" type="my_car"/>
    <trip id="car120" depart="2400.00" from="-475071113#5" to="1445926307" type="my_car"/>
    <trip id="car121" depart="2420.00" from="1445926303#2" to="527232518#1" type="my_car"/>
    <trip id="car122" depart="2440.00" from="-469966399#11" to="469966399#13" type="my_car"/>
    <trip id="car123" depart="2460.00" from="-469966399#14" to="-475071113#6" type="my_car"/>
    <trip id="car124" depart="2480.00" from="469966399#1" to="-469966400#1" type="my_car"/>
    <trip id="car125" depart="2500.00" from="-469966399#9" to="469966399#4" type="my_car"/>
    <trip id="car126" depart="2520.00" from="-1445926304" to="1445926300" type="my_car"/>
    <trip id="car127" depart="2540.00" from="798234860#1" to="798234860#1" type="my_car"/>
    <trip id="car128" depart="2560.00" from="-1445926304" to="-469966399#2" type="my_car"/>
    <trip id="car129" depart="2580.00" from="-469966399#4" to="527232518#1" type="my_car"/>
    <trip id="car130" depart="2600.00" from="475071113#3" to="475071113#2" type="my_car"/>
    <trip id="car131" depart="2620.00" from="-475071113#0" to="-469966399#0" type="my_car"/>
    <trip id="car132" depart="2640.00" from="469966400#3" to="469966399#12" type="my_car"/>
    <trip id="car133" depart="2660.00" from="1445926308#1" to="695769605" type="my_car"/>
    <trip id="car134" depart="2680.00" from="1445927130" to="-1018228073#0" type="my_car"/>
    <trip id="car135" depart="2700.00" from="469966400#2" to="-469966400#1" type="my_car"/>
    <trip id="car136" depart="2720.00" from="469966399#0" to="527232518#1" type="my_car"/>
    <trip id="car137" depart="2740.00" from="-1445926308#0" to="-1445926308#1" type="my_car"/>
    <trip id="car138" depart="2760.00" from="-1445926306#0" to="1445926305#2" type="my_car"/>
    <trip id="car139" depart="2780.00" from="-469966399#5" to="1445926308#1" type="my_car"/>
    <trip id="car140" depart="2800.00" from="469966399#13" to="-469966399#13" type="my_car"/>
    <trip id="car141" depart="2820.00" from="1445927127" to="-469966399#7" type="my_car"/>
    <trip id="car142" depart="2840.00" from="1445926302" to="475071113#5" type="my_car"/>
    <trip id="car143" depart="2860.00" from="475071113#0" to="-1445926306#0" type="my_car"/>
    <trip id="car144" depart="2880.00" from="-475071113#5" to="-469966399#8" type="my_car"/>
    <trip id="car145" depart="2900.00" from="-1018228073#1" to="469966399#6" type="my_car"/>
    <trip id="car146" depart="2920.00" from="1445927127" to="-469966399#7" type="my_car"/>
    <trip id="car147" depart="2940.00" from="469966399#4" to="1445926305#2" type="my_car"/>
    <trip id="car148" depart="2960.00" from="-475071113#6" to="-1445926303#0" type="my_car"/>
    <trip id="car149" depart="2980.00" from="-1445926304" to="475071113#2" type="my_car"/>
    <trip id="car150" depart="3000.00" from="475071113#6" to="1445926305#1" type="my_car"/>
    <trip id="car151" depart="3020.00" from="469966400#3" to="1445926307" type="my_car"/>
    <trip id="car152" depart="3040.00" from="-1445926309" to="-1445926309" type="my_car"/>
    <trip id="car153" depart="3060.00" from="-469966399#8" to="475071113#4" type="my_car"/>
    <trip id="car154" depart="3080.00" from="469966400#0" to="475071113#0" type="my_car"/>
    <trip id="car155" depart="3100.00" from="475071113#5" to="-469966399#13" type="my_car"/>
    <trip id="car156" depart="3120.00" from="-469966399#2" to="-1445926306#1" type="my_car"/>
    <trip id="car157" depart="3140.00" from="469966399#8" to="475071113#2" type="my_car"/>
    <trip id="car158" depart="3160.00" from="-475071113#3" to="1445926311" type="my_car"/>
    <trip id="car159" depart="3180.00" from="-1445926309" to="527232518#0" type="my_car"/>
    <trip id="car160" depart="3200.00" from="475071113#2" to="695769604" type="my_car"/>
    <trip id="car161" depart="3220.00" from="469966400#1" to="475071113#2" type="my_car"/>
    <trip id="car162" depart="3240.00" from="-1445926303#0" to="469966399#2" type="my_car"/>
    <trip id="car163" depart="3260.00" from="-469966400#1" to="527232518#0" type="my_car"/>
    <trip id="car164" depart="3280.00" from="469966400#0" to="475071113#0" type="my_car"/>
    <trip id="car165" depart="3300.00" from="469966400#1" to="-469966399#7" type="my_car"/>
    <trip id="car166" depart="3320.00" from="469966399#9" to="-1445926308#0" type="my_car"/>
    <trip id="car167" depart="3340.00" from="475071113#2" to="475071113#0" type="my_car"/>
    <trip id="car168" depart="3360.00" from="-469966399#12" to="469966400#0" type="my_car"/>
    <trip id="car169" depart="3380.00" from="-695769583" to="-469966400#1" type="my_car"/>
    <trip id="car170" depart="3400.00" from="469966399#9" to="-469966399#3" type="my_car"/>
    <trip id="car171" depart="3420.00" from="-1445926303#0" to="-469966399#12" type="my_car"/>
    <trip id="car172" depart="3440.00" from="-469966400#0" to="475071113#0" type="my_car"/>
    <trip id="car173" depart="3460.00" from="695769604" to="-469966399#9" type="my_car"/>
    <trip id="car174" depart="3480.00" from="1445927129" to="-475071113#6" type="my_car"/>
    <trip id="car175" depart="3500.00" from="798234860#0" to="1445926305#0" type="my_car"/>
    <trip id="car176" depart="3520.00" from="695769583" to="-1445926308#0" type="my_car"/>
    <trip id="car177" depart="3540.00" from="695769604" to="-469966399#10" type="my_car"/>
    <trip id="car178" depart="3560.00" from="695769604" to="-469966399#7" type="my_car"/>
    <trip id="car179" depart="3580.00" from="-1445926306#0" to="-798234860#1" type="my_car"/>
</routes>
