<?xml version="1.0" encoding="UTF-8"?>

<!-- generated on 2026-04-03T12:33:58.392051+05:30 by Eclipse SUMO netconvert 1.26.0
<netconvertConfiguration xmlns:xsi="http://www.w3.org/2001/XMLSchema-instance" xsi:noNamespaceSchemaLocation="http://sumo.dlr.de/xsd/netconvertConfiguration.xsd">

    <input>
        <osm-files value="iiser.osm"/>
    </input>

    <output>
        <output-file value="map.net.xml"/>
    </output>

    <projection>
        <proj.utm value="true"/>
    </projection>

    <processing>
        <dismiss-vclasses value="true"/>
        <geometry.remove value="true"/>
    </processing>

    <building_defaults>
        <default.lanewidth value="3.5"/>
    </building_defaults>

    <tls_building>
        <tls.guess value="true"/>
        <tls.guess.threshold value="0"/>
        <tls.join value="true"/>
    </tls_building>

    <junctions>
        <junctions.join value="true"/>
    </junctions>

</netconvertConfiguration>
-->

<net version="1.20" junctionCornerDetail="5" limitTurnSpeed="5.50" xmlns:xsi="http://www.w3.org/2001/XMLSchema-instance" xsi:noNamespaceSchemaLocation="http://sumo.dlr.de/xsd/net_file.xsd">

    <location netOffset="-730728.26,-958849.07" convBoundary="0.00,0.00,5420.43,1950.35" origBoundary="77.096895,8.668315,77.146084,8.686027" projParameter="+proj=utm +zone=43 +ellps=WGS84 +datum=WGS84 +units=m +no_defs"/>

    <type id="highway.footway" priority="1" numLanes="1" speed="2.78" allow="pedestrian" oneway="1" width="2.00"/>
    <type id="highway.path" priority="1" numLanes="1" speed="5.56" allow="pedestrian bicycle" oneway="0" width="2.00"/>
    <type id="highway.residential" priority="3" numLanes="1" speed="13.89" disallow="tram rail_urban rail rail_electric rail_fast ship container cable_car subway aircraft wheelchair scooter drone" oneway="0"/>
    <type id="highway.service" priority="1" numLanes="1" speed="5.56" allow="pedestrian delivery bicycle" oneway="0"/>
    <type id="highway.steps" priority="1" numLanes="1" speed="1.39" allow="pedestrian" oneway="1" width="2.00"/>
    <type id="highway.tertiary" priority="10" numLanes="1" speed="22.22" disallow="tram rail_urban rail rail_electric rail_fast ship container cable_car subway aircraft wheelchair scooter drone" oneway="0"/>
    <type id="highway.unclassified" priority="4" numLanes="1" speed="13.89" disallow="tram rail_urban rail rail_electric rail_fast ship container cable_car subway aircraft wheelchair scooter drone" oneway="0"/>

    <edge id=":13266308380_0" function="internal">
        <lane id=":13266308380_0_0" index="0" speed="6.09" length="9.38" width="3.50" shape="4244.79,1144.37 4242.45,1143.04 4240.45,1142.93 4238.79,1144.05 4237.47,1146.40"/>
    </edge>
    <edge id=":13266308380_1" function="internal">
        <lane id=":13266308380_1_0" index="0" speed="5.56" length="14.78" width="3.50" shape="4244.79,1144.37 4241.90,1142.01 4239.23,1139.45 4236.90,1136.62 4235.01,1133.45"/>
    </edge>
    <edge id=":13266308380_2" function="internal">
        <lane id=":13266308380_2_0" index="0" speed="3.82" length="1.58" width="3.50" shape="4244.79,1144.37 4244.28,1142.88"/>
    </edge>
    <edge id=":13266308380_9" function="internal">
        <lane id=":13266308380_9_0" index="0" speed="3.82" length="3.53" width="3.50" shape="4244.28,1142.88 4244.48,1141.92 4245.36,1141.49 4246.93,1141.61"/>
    </edge>
    <edge id=":13266308380_3" function="internal">
        <lane id=":13266308380_3_0" index="0" speed="5.56" length="13.20" width="3.50" shape="4238.16,1131.93 4239.90,1134.91 4241.88,1137.31 4244.20,1139.43 4246.93,1141.61"/>
    </edge>
    <edge id=":13266308380_4" function="internal">
        <lane id=":13266308380_4_0" index="0" speed="9.72" length="3.46" width="3.50" shape="4238.16,1131.93 4239.15,1134.95 4239.16,1135.23"/>
    </edge>
    <edge id=":13266308380_5" function="internal">
        <lane id=":13266308380_5_0" index="0" speed="3.82" length="1.58" width="3.50" shape="4238.16,1131.93 4237.95,1133.49"/>
    </edge>
    <edge id=":13266308380_10" function="internal">
        <lane id=":13266308380_10_0" index="0" speed="9.72" length="11.41" width="3.50" shape="4239.16,1135.23 4239.36,1138.37 4238.80,1142.19 4237.47,1146.40"/>
    </edge>
    <edge id=":13266308380_11" function="internal">
        <lane id=":13266308380_11_0" index="0" speed="3.82" length="3.53" width="3.50" shape="4237.95,1133.49 4237.35,1134.26 4236.37,1134.25 4235.01,1133.45"/>
    </edge>
    <edge id=":13266308380_6" function="internal">
        <lane id=":13266308380_6_0" index="0" speed="9.72" length="12.01" width="3.50" shape="4234.21,1145.13 4235.34,1141.63 4235.85,1138.51 4235.74,1135.79 4235.01,1133.45"/>
    </edge>
    <edge id=":13266308380_7" function="internal">
        <lane id=":13266308380_7_0" index="0" speed="7.81" length="16.32" width="3.50" shape="4234.21,1145.13 4236.50,1141.05 4239.39,1139.10 4242.87,1139.29 4246.93,1141.61"/>
    </edge>
    <edge id=":13266308380_8" function="internal">
        <lane id=":13266308380_8_0" index="0" speed="3.82" length="1.72" width="3.50" shape="4234.21,1145.13 4235.50,1144.22 4235.64,1144.21"/>
    </edge>
    <edge id=":13266308380_12" function="internal">
        <lane id=":13266308380_12_0" index="0" speed="3.82" length="3.39" width="3.50" shape="4235.64,1144.21 4236.48,1144.13 4237.13,1144.86 4237.47,1146.40"/>
    </edge>
    <edge id=":13266308385_0" function="internal">
        <lane id=":13266308385_0_0" index="0" speed="3.82" length="5.11" width="3.50" shape="4148.54,1145.94 4148.33,1144.37 4148.69,1143.47 4149.64,1143.22 4151.16,1143.62"/>
    </edge>
    <edge id=":13266308390_0" function="internal">
        <lane id=":13266308390_0_0" index="0" speed="3.47" length="7.60" width="2.00" shape="4149.20,1471.00 4147.87,1472.12 4147.12,1473.63 4146.96,1475.50 4147.39,1477.75"/>
    </edge>
    <edge id=":13266308390_1" function="internal">
        <lane id=":13266308390_1_0" index="0" speed="5.56" length="8.23" width="3.50" shape="4149.20,1471.00 4141.94,1474.88"/>
    </edge>
    <edge id=":13266308390_2" function="internal">
        <lane id=":13266308390_2_0" index="0" speed="3.82" length="1.58" width="3.50" shape="4149.20,1471.00 4147.62,1470.90"/>
    </edge>
    <edge id=":13266308390_6" function="internal">
        <lane id=":13266308390_6_0" index="0" speed="3.82" length="3.53" width="3.50" shape="4147.62,1470.90 4146.80,1470.36 4146.74,1469.38 4147.44,1467.97"/>
    </edge>
    <edge id=":13266308390_3" function="internal">
        <lane id=":13266308390_3_0" index="0" speed="5.56" length="8.03" width="3.50" shape="4140.36,1471.76 4147.44,1467.97"/>
    </edge>
    <edge id=":13266308390_4" function="internal">
        <lane id=":13266308390_4_0" index="0" speed="3.47" length="2.39" width="2.00" shape="4140.36,1471.76 4142.52,1471.26 4142.68,1471.34"/>
    </edge>
    <edge id=":13266308390_5" function="internal">
        <lane id=":13266308390_5_0" index="0" speed="3.82" length="1.58" width="3.50" shape="4140.36,1471.76 4141.93,1471.95"/>
    </edge>
    <edge id=":13266308390_7" function="internal">
        <lane id=":13266308390_7_0" index="0" speed="3.47" length="8.34" width="2.00" shape="4142.68,1471.34 4144.41,1472.10 4146.03,1474.26 4147.39,1477.75"/>
    </edge>
    <edge id=":13266308390_8" function="internal">
        <lane id=":13266308390_8_0" index="0" speed="3.82" length="3.53" width="3.50" shape="4141.93,1471.95 4142.72,1472.53 4142.72,1473.51 4141.94,1474.88"/>
    </edge>
    <edge id=":13266308395_0" function="internal">
        <lane id=":13266308395_0_0" index="0" speed="13.89" length="10.32" width="3.50" shape="4137.85,1541.60 4128.55,1546.07"/>
    </edge>
    <edge id=":13266308395_1" function="internal">
        <lane id=":13266308395_1_0" index="0" speed="3.82" length="1.58" width="3.50" shape="4137.85,1541.60 4136.28,1541.42"/>
    </edge>
    <edge id=":13266308395_6" function="internal">
        <lane id=":13266308395_6_0" index="0" speed="3.82" length="3.53" width="3.50" shape="4136.28,1541.42 4135.49,1540.84 4135.49,1539.86 4136.26,1538.49"/>
    </edge>
    <edge id=":13266308395_2" function="internal">
        <lane id=":13266308395_2_0" index="0" speed="5.83" length="8.80" width="3.50" shape="4129.81,1535.20 4130.74,1537.61 4132.12,1538.96 4133.96,1539.25 4136.26,1538.49"/>
    </edge>
    <edge id=":13266308395_3" function="internal">
        <lane id=":13266308395_3_0" index="0" speed="7.64" length="11.65" width="3.50" shape="4129.81,1535.20 4130.56,1539.38 4130.60,1542.58 4129.93,1544.82 4128.55,1546.07"/>
    </edge>
    <edge id=":13266308395_4" function="internal">
        <lane id=":13266308395_4_0" index="0" speed="13.89" length="10.12" width="3.50" shape="4127.13,1542.87 4136.26,1538.49"/>
    </edge>
    <edge id=":13266308395_5" function="internal">
        <lane id=":13266308395_5_0" index="0" speed="3.82" length="1.58" width="3.50" shape="4127.13,1542.87 4128.69,1543.14"/>
    </edge>
    <edge id=":13266308395_7" function="internal">
        <lane id=":13266308395_7_0" index="0" speed="3.82" length="3.53" width="3.50" shape="4128.69,1543.14 4129.44,1543.77 4129.40,1544.74 4128.55,1546.07"/>
    </edge>
    <edge id=":13266308397_0" function="internal">
        <lane id=":13266308397_0_0" index="0" speed="6.04" length="9.40" width="3.50" shape="4159.47,1537.39 4158.69,1534.79 4157.31,1533.36 4155.34,1533.08 4152.78,1533.96"/>
    </edge>
    <edge id=":13266308397_1" function="internal">
        <lane id=":13266308397_1_0" index="0" speed="10.15" length="15.52" width="3.50" shape="4159.47,1537.39 4159.19,1532.82 4159.87,1528.98 4161.49,1525.85 4164.06,1523.45"/>
    </edge>
    <edge id=":13266308397_2" function="internal">
        <lane id=":13266308397_2_0" index="0" speed="3.82" length="1.69" width="3.50" shape="4159.47,1537.39 4160.13,1535.96 4160.22,1535.90"/>
    </edge>
    <edge id=":13266308397_9" function="internal">
        <lane id=":13266308397_9_0" index="0" speed="3.82" length="3.42" width="3.50" shape="4160.22,1535.90 4160.93,1535.40 4161.86,1535.70 4162.93,1536.87"/>
    </edge>
    <edge id=":13266308397_3" function="internal">
        <lane id=":13266308397_3_0" index="0" speed="8.83" length="11.56" width="3.50" shape="4166.01,1526.36 4164.23,1528.08 4163.12,1530.41 4162.68,1533.34 4162.93,1536.87"/>
    </edge>
    <edge id=":13266308397_4" function="internal">
        <lane id=":13266308397_4_0" index="0" speed="13.89" length="15.27" width="3.50" shape="4166.01,1526.36 4162.82,1528.40 4159.51,1530.35 4156.14,1532.21 4152.78,1533.96"/>
    </edge>
    <edge id=":13266308397_5" function="internal">
        <lane id=":13266308397_5_0" index="0" speed="3.82" length="1.58" width="3.50" shape="4166.01,1526.36 4164.43,1526.36"/>
    </edge>
    <edge id=":13266308397_10" function="internal">
        <lane id=":13266308397_10_0" index="0" speed="3.82" length="3.53" width="3.50" shape="4164.43,1526.36 4163.58,1525.88 4163.46,1524.91 4164.06,1523.45"/>
    </edge>
    <edge id=":13266308397_6" function="internal">
        <lane id=":13266308397_6_0" index="0" speed="13.89" length="14.86" width="3.50" shape="4151.18,1530.85 4154.49,1529.12 4157.73,1527.34 4160.92,1525.46 4164.06,1523.45"/>
    </edge>
    <edge id=":13266308397_7" function="internal">
        <lane id=":13266308397_7_0" index="0" speed="7.78" length="4.76" width="3.50" shape="4151.18,1530.85 4155.69,1529.30"/>
    </edge>
    <edge id=":13266308397_8" function="internal">
        <lane id=":13266308397_8_0" index="0" speed="3.82" length="1.58" width="3.50" shape="4151.18,1530.85 4152.75,1531.03"/>
    </edge>
    <edge id=":13266308397_11" function="internal">
        <lane id=":13266308397_11_0" index="0" speed="7.78" length="11.75" width="3.50" shape="4155.69,1529.30 4159.15,1529.78 4161.56,1532.31 4162.93,1536.87"/>
    </edge>
    <edge id=":13266308397_12" function="internal">
        <lane id=":13266308397_12_0" index="0" speed="3.82" length="3.53" width="3.50" shape="4152.75,1531.03 4153.54,1531.61 4153.55,1532.59 4152.78,1533.96"/>
    </edge>
    <edge id=":13266430007_0" function="internal">
        <lane id=":13266430007_0_0" index="0" speed="13.89" length="14.49" width="3.50" shape="4135.24,1699.69 4133.89,1714.12"/>
    </edge>
    <edge id=":13266430007_1" function="internal">
        <lane id=":13266430007_1_0" index="0" speed="8.22" length="4.19" width="3.50" shape="4135.24,1699.69 4134.16,1703.58 4134.07,1703.70"/>
    </edge>
    <edge id=":13266430007_2" function="internal">
        <lane id=":13266430007_2_0" index="0" speed="3.82" length="1.58" width="3.50" shape="4135.24,1699.69 4134.20,1700.88"/>
    </edge>
    <edge id=":13266430007_9" function="internal">
        <lane id=":13266430007_9_0" index="0" speed="8.22" length="10.57" width="3.50" shape="4134.07,1703.70 4132.09,1706.21 4129.04,1707.58 4125.01,1707.69"/>
    </edge>
    <edge id=":13266430007_10" function="internal">
        <lane id=":13266430007_10_0" index="0" speed="3.82" length="3.53" width="3.50" shape="4134.20,1700.88 4133.28,1701.20 4132.47,1700.65 4131.77,1699.24"/>
    </edge>
    <edge id=":13266430007_3" function="internal">
        <lane id=":13266430007_3_0" index="0" speed="6.62" length="9.17" width="3.50" shape="4125.41,1704.21 4127.92,1704.14 4129.81,1703.29 4131.10,1701.66 4131.77,1699.24"/>
    </edge>
    <edge id=":13266430007_4" function="internal">
        <lane id=":13266430007_4_0" index="0" speed="8.33" length="14.69" width="3.50" shape="4125.41,1704.21 4129.31,1705.21 4132.02,1707.20 4133.55,1710.17 4133.89,1714.12"/>
    </edge>
    <edge id=":13266430007_5" function="internal">
        <lane id=":13266430007_5_0" index="0" speed="3.82" length="1.72" width="3.50" shape="4125.41,1704.21 4126.61,1705.23 4126.66,1705.36"/>
    </edge>
    <edge id=":13266430007_11" function="internal">
        <lane id=":13266430007_11_0" index="0" speed="3.82" length="3.39" width="3.50" shape="4126.66,1705.36 4126.95,1706.15 4126.41,1706.97 4125.01,1707.69"/>
    </edge>
    <edge id=":13266430007_6" function="internal">
        <lane id=":13266430007_6_0" index="0" speed="6.76" length="9.28" width="3.50" shape="4130.40,1713.92 4130.18,1711.44 4129.21,1709.57 4127.49,1708.32 4125.01,1707.69"/>
    </edge>
    <edge id=":13266430007_7" function="internal">
        <lane id=":13266430007_7_0" index="0" speed="13.89" length="14.75" width="3.50" shape="4130.40,1713.92 4131.77,1699.24"/>
    </edge>
    <edge id=":13266430007_8" function="internal">
        <lane id=":13266430007_8_0" index="0" speed="3.82" length="1.58" width="3.50" shape="4130.40,1713.92 4131.35,1712.66"/>
    </edge>
    <edge id=":13266430007_12" function="internal">
        <lane id=":13266430007_12_0" index="0" speed="3.82" length="3.53" width="3.50" shape="4131.35,1712.66 4132.24,1712.27 4133.09,1712.76 4133.89,1714.12"/>
    </edge>
    <edge id=":13266430009_0" function="internal">
        <lane id=":13266430009_0_0" index="0" speed="3.82" length="5.11" width="3.50" shape="4145.92,1725.13 4146.43,1726.62 4146.25,1727.58 4145.37,1728.01 4143.80,1727.91"/>
    </edge>
    <edge id=":13266430014_0" function="internal">
        <lane id=":13266430014_0_0" index="0" speed="5.56" length="15.85" width="3.50" shape="3929.58,1791.14 3917.66,1780.70"/>
    </edge>
    <edge id=":13266430014_1" function="internal">
        <lane id=":13266430014_1_0" index="0" speed="7.74" length="5.02" width="3.50" shape="3929.58,1791.14 3926.42,1787.24"/>
    </edge>
    <edge id=":13266430014_2" function="internal">
        <lane id=":13266430014_2_0" index="0" speed="3.82" length="1.58" width="3.50" shape="3929.58,1791.14 3929.13,1789.62"/>
    </edge>
    <edge id=":13266430014_9" function="internal">
        <lane id=":13266430014_9_0" index="0" speed="7.74" length="12.39" width="3.50" shape="3926.42,1787.24 3926.30,1787.10 3925.57,1783.56 3927.39,1780.51 3931.75,1777.97"/>
    </edge>
    <edge id=":13266430014_10" function="internal">
        <lane id=":13266430014_10_0" index="0" speed="3.82" length="3.54" width="3.50" shape="3929.13,1789.62 3929.35,1788.67 3930.25,1788.27 3931.82,1788.43"/>
    </edge>
    <edge id=":13266430014_3" function="internal">
        <lane id=":13266430014_3_0" index="0" speed="5.92" length="9.57" width="3.50" shape="3933.07,1781.21 3930.66,1782.61 3929.64,1784.28 3930.03,1786.22 3931.82,1788.43"/>
    </edge>
    <edge id=":13266430014_4" function="internal">
        <lane id=":13266430014_4_0" index="0" speed="9.72" length="16.19" width="3.50" shape="3933.07,1781.21 3928.39,1782.69 3924.26,1783.10 3920.69,1782.44 3917.66,1780.70"/>
    </edge>
    <edge id=":13266430014_5" function="internal">
        <lane id=":13266430014_5_0" index="0" speed="3.82" length="1.68" width="3.50" shape="3933.07,1781.21 3931.53,1780.90 3931.45,1780.83"/>
    </edge>
    <edge id=":13266430014_11" function="internal">
        <lane id=":13266430014_11_0" index="0" speed="3.82" length="3.43" width="3.50" shape="3931.45,1780.83 3930.79,1780.25 3930.87,1779.28 3931.75,1777.97"/>
    </edge>
    <edge id=":13266430014_6" function="internal">
        <lane id=":13266430014_6_0" index="0" speed="9.41" length="12.42" width="3.50" shape="3919.89,1778.00 3922.09,1779.20 3924.80,1779.60 3928.02,1779.19 3931.75,1777.97"/>
    </edge>
    <edge id=":13266430014_7" function="internal">
        <lane id=":13266430014_7_0" index="0" speed="5.56" length="15.85" width="3.50" shape="3919.89,1778.00 3931.82,1788.43"/>
    </edge>
    <edge id=":13266430014_8" function="internal">
        <lane id=":13266430014_8_0" index="0" speed="3.82" length="1.58" width="3.50" shape="3919.89,1778.00 3920.34,1779.51"/>
    </edge>
    <edge id=":13266430014_12" function="internal">
        <lane id=":13266430014_12_0" index="0" speed="3.82" length="3.53" width="3.50" shape="3920.34,1779.51 3920.12,1780.46 3919.23,1780.86 3917.66,1780.70"/>
    </edge>
    <edge id=":13266430017_0" function="internal">
        <lane id=":13266430017_0_0" index="0" speed="7.01" length="12.82" width="3.50" shape="4234.91,1619.49 4232.24,1617.18 4229.63,1616.59 4227.07,1617.73 4224.56,1620.60"/>
    </edge>
    <edge id=":13266430017_1" function="internal">
        <lane id=":13266430017_1_0" index="0" speed="12.33" length="18.60" width="3.50" shape="4234.91,1619.49 4231.51,1616.30 4227.60,1614.14 4223.19,1613.03 4218.27,1612.97"/>
    </edge>
    <edge id=":13266430017_2" function="internal">
        <lane id=":13266430017_2_0" index="0" speed="7.81" length="8.68" width="3.50" shape="4234.91,1619.49 4231.92,1614.73 4231.97,1611.68"/>
    </edge>
    <edge id=":13266430017_3" function="internal">
        <lane id=":13266430017_3_0" index="0" speed="3.82" length="1.72" width="3.50" shape="4234.91,1619.49 4234.73,1617.93 4234.78,1617.79"/>
    </edge>
    <edge id=":13266430017_20" function="internal">
        <lane id=":13266430017_20_0" index="0" speed="7.81" length="10.87" width="3.50" shape="4231.97,1611.68 4231.98,1611.10 4235.10,1608.62 4241.27,1607.28"/>
    </edge>
    <edge id=":13266430017_21" function="internal">
        <lane id=":13266430017_21_0" index="0" speed="3.82" length="3.39" width="3.50" shape="4234.78,1617.79 4235.11,1617.03 4236.06,1616.80 4237.58,1617.23"/>
    </edge>
    <edge id=":13266430017_4" function="internal">
        <lane id=":13266430017_4_0" index="0" speed="5.98" length="10.74" width="3.50" shape="4241.62,1610.76 4238.07,1611.49 4236.22,1612.82 4236.06,1614.73 4237.58,1617.23"/>
    </edge>
    <edge id=":13266430017_5" function="internal">
        <lane id=":13266430017_5_0" index="0" speed="13.59" length="20.35" width="3.50" shape="4241.62,1610.76 4236.33,1611.80 4231.72,1613.78 4227.80,1616.72 4224.56,1620.60"/>
    </edge>
    <edge id=":13266430017_6" function="internal">
        <lane id=":13266430017_6_0" index="0" speed="13.89" length="23.45" width="3.50" shape="4241.62,1610.76 4218.27,1612.97"/>
    </edge>
    <edge id=":13266430017_7" function="internal">
        <lane id=":13266430017_7_0" index="0" speed="3.82" length="1.69" width="3.50" shape="4241.62,1610.76 4240.22,1610.02 4240.16,1609.93"/>
    </edge>
    <edge id=":13266430017_22" function="internal">
        <lane id=":13266430017_22_0" index="0" speed="3.82" length="3.42" width="3.50" shape="4240.16,1609.93 4239.70,1609.19 4240.05,1608.28 4241.27,1607.28"/>
    </edge>
    <edge id=":13266430017_8" function="internal">
        <lane id=":13266430017_8_0" index="0" speed="5.17" length="10.29" width="3.50" shape="4239.79,1602.80 4237.05,1605.10 4236.38,1606.61 4237.79,1607.34 4241.27,1607.28"/>
    </edge>
    <edge id=":13266430017_9" function="internal">
        <lane id=":13266430017_9_0" index="0" speed="7.64" length="16.98" width="3.50" shape="4239.79,1602.80 4236.28,1606.11 4234.74,1609.61 4235.17,1613.32 4237.58,1617.23"/>
    </edge>
    <edge id=":13266430017_10" function="internal">
        <lane id=":13266430017_10_0" index="0" speed="7.64" length="23.48" width="3.50" shape="4239.79,1602.80 4236.08,1606.22 4231.69,1611.23 4227.54,1616.47 4224.56,1620.60"/>
    </edge>
    <edge id=":13266430017_11" function="internal">
        <lane id=":13266430017_11_0" index="0" speed="7.64" length="17.24" width="3.50" shape="4239.79,1602.80 4235.41,1605.55 4229.37,1608.81 4224.63,1610.94"/>
    </edge>
    <edge id=":13266430017_23" function="internal">
        <lane id=":13266430017_23_0" index="0" speed="7.64" length="6.69" width="3.50" shape="4224.63,1610.94 4223.16,1611.60 4218.27,1612.97"/>
    </edge>
    <edge id=":13266430017_12" function="internal">
        <lane id=":13266430017_12_0" index="0" speed="13.89" length="23.41" width="3.50" shape="4217.96,1609.48 4241.27,1607.28"/>
    </edge>
    <edge id=":13266430017_13" function="internal">
        <lane id=":13266430017_13_0" index="0" speed="13.36" length="21.95" width="3.50" shape="4217.96,1609.48 4223.74,1609.56 4228.94,1610.88 4233.55,1613.44 4237.58,1617.23"/>
    </edge>
    <edge id=":13266430017_14" function="internal">
        <lane id=":13266430017_14_0" index="0" speed="7.63" length="19.28" width="3.50" shape="4217.96,1609.48 4223.95,1609.68 4227.05,1611.60 4227.25,1615.24 4224.56,1620.60"/>
    </edge>
    <edge id=":13266430017_15" function="internal">
        <lane id=":13266430017_15_0" index="0" speed="3.82" length="1.71" width="3.50" shape="4217.96,1609.48 4219.35,1610.24 4219.41,1610.35"/>
    </edge>
    <edge id=":13266430017_24" function="internal">
        <lane id=":13266430017_24_0" index="0" speed="3.82" length="3.40" width="3.50" shape="4219.41,1610.35 4219.86,1611.07 4219.50,1611.98 4218.27,1612.97"/>
    </edge>
    <edge id=":13266430017_16" function="internal">
        <lane id=":13266430017_16_0" index="0" speed="5.67" length="9.87" width="3.50" shape="4221.65,1618.66 4223.03,1615.92 4222.92,1614.05 4221.34,1613.07 4218.27,1612.97"/>
    </edge>
    <edge id=":13266430017_17" function="internal">
        <lane id=":13266430017_17_0" index="0" speed="13.89" length="23.45" width="3.50" shape="4221.65,1618.66 4225.39,1614.16 4229.91,1610.77 4235.20,1608.47 4241.27,1607.28"/>
    </edge>
    <edge id=":13266430017_18" function="internal">
        <lane id=":13266430017_18_0" index="0" speed="8.54" length="19.71" width="3.50" shape="4221.65,1618.66 4225.47,1614.32 4229.40,1612.63 4233.44,1613.61 4237.58,1617.23"/>
    </edge>
    <edge id=":13266430017_19" function="internal">
        <lane id=":13266430017_19_0" index="0" speed="3.82" length="1.71" width="3.50" shape="4221.65,1618.66 4223.10,1618.05 4223.24,1618.07"/>
    </edge>
    <edge id=":13266430017_25" function="internal">
        <lane id=":13266430017_25_0" index="0" speed="3.82" length="3.40" width="3.50" shape="4223.24,1618.07 4224.08,1618.17 4224.56,1619.02 4224.56,1620.60"/>
    </edge>
    <edge id=":13266430020_0" function="internal">
        <lane id=":13266430020_0_0" index="0" speed="13.89" length="16.62" width="3.50" shape="4131.04,1684.88 4130.54,1680.90 4129.94,1676.62 4129.12,1672.40 4127.97,1668.58"/>
    </edge>
    <edge id=":13266430020_1" function="internal">
        <lane id=":13266430020_1_0" index="0" speed="12.01" length="3.96" width="3.50" shape="4131.04,1684.88 4131.20,1681.48 4131.40,1680.97"/>
    </edge>
    <edge id=":13266430020_2" function="internal">
        <lane id=":13266430020_2_0" index="0" speed="3.82" length="1.58" width="3.50" shape="4131.04,1684.88 4131.74,1683.47"/>
    </edge>
    <edge id=":13266430020_9" function="internal">
        <lane id=":13266430020_9_0" index="0" speed="12.01" length="13.22" width="3.50" shape="4131.40,1680.97 4132.54,1677.90 4135.06,1674.12 4138.75,1670.16"/>
    </edge>
    <edge id=":13266430020_10" function="internal">
        <lane id=":13266430020_10_0" index="0" speed="3.82" length="3.53" width="3.50" shape="4131.74,1683.47 4132.55,1682.92 4133.47,1683.25 4134.51,1684.44"/>
    </edge>
    <edge id=":13266430020_3" function="internal">
        <lane id=":13266430020_3_0" index="0" speed="10.85" length="13.91" width="3.50" shape="4141.15,1672.70 4138.01,1676.02 4135.86,1679.08 4134.69,1681.89 4134.51,1684.44"/>
    </edge>
    <edge id=":13266430020_4" function="internal">
        <lane id=":13266430020_4_0" index="0" speed="7.88" length="17.69" width="3.50" shape="4141.15,1672.70 4137.15,1675.46 4133.62,1675.69 4130.56,1673.40 4127.97,1668.58"/>
    </edge>
    <edge id=":13266430020_5" function="internal">
        <lane id=":13266430020_5_0" index="0" speed="3.82" length="1.72" width="3.50" shape="4141.15,1672.70 4139.60,1672.97 4139.46,1672.92"/>
    </edge>
    <edge id=":13266430020_11" function="internal">
        <lane id=":13266430020_11_0" index="0" speed="3.82" length="3.39" width="3.50" shape="4139.46,1672.92 4138.68,1672.64 4138.39,1671.70 4138.75,1670.16"/>
    </edge>
    <edge id=":13266430020_6" function="internal">
        <lane id=":13266430020_6_0" index="0" speed="5.99" length="9.61" width="3.50" shape="4131.54,1668.12 4132.93,1670.68 4134.60,1671.88 4136.53,1671.70 4138.75,1670.16"/>
    </edge>
    <edge id=":13266430020_7" function="internal">
        <lane id=":13266430020_7_0" index="0" speed="13.89" length="16.63" width="3.50" shape="4131.54,1668.12 4132.67,1671.94 4133.46,1676.17 4134.03,1680.45 4134.51,1684.44"/>
    </edge>
    <edge id=":13266430020_8" function="internal">
        <lane id=":13266430020_8_0" index="0" speed="3.85" length="1.62" width="3.50" shape="4131.54,1668.12 4130.82,1669.57"/>
    </edge>
    <edge id=":13266430020_12" function="internal">
        <lane id=":13266430020_12_0" index="0" speed="3.85" length="3.64" width="3.50" shape="4130.82,1669.57 4129.99,1670.14 4129.04,1669.81 4127.97,1668.58"/>
    </edge>
    <edge id=":13266430021_0" function="internal">
        <lane id=":13266430021_0_0" index="0" speed="13.89" length="16.17" width="3.50" shape="4243.24,1552.76 4240.33,1536.86"/>
    </edge>
    <edge id=":13266430021_1" function="internal">
        <lane id=":13266430021_1_0" index="0" speed="7.64" length="5.43" width="3.50" shape="4243.24,1552.76 4242.97,1547.34"/>
    </edge>
    <edge id=":13266430021_2" function="internal">
        <lane id=":13266430021_2_0" index="0" speed="3.82" length="1.58" width="3.50" shape="4243.24,1552.76 4243.86,1551.31"/>
    </edge>
    <edge id=":13266430021_9" function="internal">
        <lane id=":13266430021_9_0" index="0" speed="7.64" length="12.58" width="3.50" shape="4242.97,1547.34 4244.56,1544.13 4247.99,1543.15 4253.28,1544.39"/>
    </edge>
    <edge id=":13266430021_10" function="internal">
        <lane id=":13266430021_10_0" index="0" speed="3.82" length="3.53" width="3.50" shape="4243.86,1551.31 4244.64,1550.73 4245.58,1551.00 4246.68,1552.13"/>
    </edge>
    <edge id=":13266430021_3" function="internal">
        <lane id=":13266430021_3_0" index="0" speed="5.78" length="9.62" width="3.50" shape="4252.04,1547.67 4249.22,1547.00 4247.38,1547.53 4246.54,1549.24 4246.68,1552.13"/>
    </edge>
    <edge id=":13266430021_4" function="internal">
        <lane id=":13266430021_4_0" index="0" speed="11.14" length="16.63" width="3.50" shape="4252.04,1547.67 4247.39,1545.51 4243.89,1542.98 4241.54,1540.10 4240.33,1536.86"/>
    </edge>
    <edge id=":13266430021_5" function="internal">
        <lane id=":13266430021_5_0" index="0" speed="3.82" length="1.58" width="3.50" shape="4252.04,1547.67 4251.13,1546.38"/>
    </edge>
    <edge id=":13266430021_11" function="internal">
        <lane id=":13266430021_11_0" index="0" speed="3.82" length="3.53" width="3.50" shape="4251.13,1546.38 4251.03,1545.41 4251.75,1544.75 4253.28,1544.39"/>
    </edge>
    <edge id=":13266430021_6" function="internal">
        <lane id=":13266430021_6_0" index="0" speed="9.92" length="13.04" width="3.50" shape="4243.78,1536.23 4244.71,1538.58 4246.60,1540.72 4249.46,1542.66 4253.28,1544.39"/>
    </edge>
    <edge id=":13266430021_7" function="internal">
        <lane id=":13266430021_7_0" index="0" speed="13.89" length="16.17" width="3.50" shape="4243.78,1536.23 4246.68,1552.13"/>
    </edge>
    <edge id=":13266430021_8" function="internal">
        <lane id=":13266430021_8_0" index="0" speed="3.82" length="1.58" width="3.50" shape="4243.78,1536.23 4243.15,1537.67"/>
    </edge>
    <edge id=":13266430021_12" function="internal">
        <lane id=":13266430021_12_0" index="0" speed="3.82" length="3.53" width="3.50" shape="4243.15,1537.67 4242.37,1538.26 4241.43,1537.99 4240.33,1536.86"/>
    </edge>
    <edge id=":13266430024_0" function="internal">
        <lane id=":13266430024_0_0" index="0" speed="6.43" length="8.33" width="2.00" shape="4267.77,1572.17 4265.87,1573.05 4264.67,1574.44 4264.19,1576.35 4264.41,1578.77"/>
    </edge>
    <edge id=":13266430024_1" function="internal">
        <lane id=":13266430024_1_0" index="0" speed="13.89" length="9.37" width="3.50" shape="4267.77,1572.17 4265.09,1572.90 4263.24,1573.35 4261.37,1573.71 4258.63,1574.17"/>
    </edge>
    <edge id=":13266430024_2" function="internal">