<?xml version="1.0" encoding="UTF-8"?>

<!-- generated on 2026-04-09 13:24:11.549796 by Eclipse SUMO randomTrips.py UNKNOWN
<configuration>
    <net-file value="map.net.xml"/>
    <output-trip-file value="cars.rou.xml"/>
    <prefix value="car"/>
    <trip-attributes value="type=&quot;my_car&quot;"/>
    <edge-permission value="passenger"/>
    <period value="20.0"/>
</configuration>
-->

<!-- generated on 2026-04-09T13:24:11.517871+05:30 by Eclipse SUMO duarouter 1.26.0
<duarouterConfiguration xmlns:xsi="http://www.w3.org/2001/XMLSchema-instance" xsi:noNamespaceSchemaLocation="http://sumo.dlr.de/xsd/duarouterConfiguration.xsd">

    <input>
        <net-file value="map.net.xml"/>
        <route-files value="cars.rou.xml"/>
    </input>

    <output>
        <output-file value="routes.rou.xml"/>
        <alternatives-output value="NUL"/>
    </output>

    <time>
        <begin value="0"/>
        <end value="3600"/>
    </time>

    <report>
        <no-warnings value="true"/>
        <ignore-errors value="true"/>
        <no-step-log value="true"/>
    </report>

</duarouterConfiguration>
-->

<routes xmlns:xsi="http://www.w3.org/2001/XMLSchema-instance" xsi:noNamespaceSchemaLocation="http://sumo.dlr.de/xsd/routes_file.xsd">
    <vehicle id="car0" type="my_car" depart="0.00">
        <route edges="1445927127 -1445927127 469966399#3 695769602 469966400#1 695769603 469966400#3 469966400#4 469966399#10 1445926303#0 1445926303#1 -1445926303#1"/>
    </vehicle>
    <vehicle id="car1" type="my_car" depart="20.00">
        <route edges="-469966399#5 -469966399#4 -469966399#3"/>
    </vehicle>
    <vehicle id="car2" type="my_car" depart="40.00">
        <route edges="469966399#3 -469966399#3 -469966399#2 475071113#0 1445927130 469966399#1"/>
    </vehicle>
    <vehicle id="car3" type="my_car" depart="60.00">
        <route edges="475071113#4 475071113#5 475071113#6 -475071113#2 -1445927127 469966399#3 695769602 469966400#1 695769603 469966400#3 469966400#4 469966399#10 469966399#11 -527232518#1 -527232518#0 -1445926306#1 -1445926306#0"/>
    </vehicle>
    <vehicle id="car4" type="my_car" depart="80.00">
        <route edges="-475071113#5 475071113#5 475071113#6 -475071113#2 -1445927127 469966399#3 695769602 469966400#1 695769603 469966400#3 469966400#4 469966399#10 1445926303#0 1445926305#0 1445926305#1 1445926305#2 -1445926303#2"/>
    </vehicle>
    <vehicle id="car5" type="my_car" depart="100.00">
        <route edges="-469966399#12 -469966399#11 1445926303#0 1445926303#1 1445926303#2 1445926303#3"/>
    </vehicle>
    <vehicle id="car6" type="my_car" depart="120.00">
        <route edges="-1445926303#0 469966399#11 469966399#12 -469966399#12"/>
    </vehicle>
    <vehicle id="car7" type="my_car" depart="140.00">
        <route edges="1445927129 475071113#4 475071113#5 475071113#6 -475071113#2 -1445927127 469966399#3 695769602 469966400#1 695769603 469966400#3 469966400#4 469966399#10 1445926303#0 1445926305#0 1445926305#1"/>
    </vehicle>
    <vehicle id="car8" type="my_car" depart="160.00">
        <route edges="-469966399#12 -469966399#11 1445926303#0 1445926305#0 1445926305#1 1445926308#0"/>
    </vehicle>
    <vehicle id="car9" type="my_car" depart="180.00">
        <route edges="469966400#1 -469966400#1 -469966400#0 -469966399#4 -469966399#3 -469966399#2 475071113#0 1445927130 -469966399#0 -1018228073#0"/>
    </vehicle>
    <vehicle id="car10" type="my_car" depart="200.00">
        <route edges="469966400#0 469966400#1 695769603 469966400#3 469966400#4 469966399#10 469966399#11"/>
    </vehicle>
    <vehicle id="car11" type="my_car" depart="220.00">
        <route edges="-469966400#2 -469966400#1 -469966400#0 -469966399#4 -469966399#3 -469966399#2 475071113#0 1445927130 -469966399#0"/>
    </vehicle>
    <vehicle id="car12" type="my_car" depart="240.00">
        <route edges="695769603 -469966400#2 -469966400#1 -469966400#0 -469966399#4 -469966399#3 -469966399#2 475071113#0 -475071113#0"/>
    </vehicle>
    <vehicle id="car13" type="my_car" depart="260.00">
        <route edges="-1445926305#1 -1445926305#0 -1445926303#0 469966399#11 -527232518#1 -527232518#0 -1445926306#1"/>
    </vehicle>
    <vehicle id="car14" type="my_car" depart="280.00">
        <route edges="475071113#0 -475071113#0 469966399#2 469966399#3 695769602 469966400#1 695769603 469966400#3 469966400#4 469966399#10 1445926303#0 1445926305#0 1445926305#1 1445926309 1445926308#1"/>
    </vehicle>
    <vehicle id="car15" type="my_car" depart="300.00">
        <route edges="469966400#1 695769603 469966400#3 469966400#4 469966399#10 469966399#11 469966399#12 469966399#13 469966399#14"/>
    </vehicle>
    <vehicle id="car16" type="my_car" depart="320.00">
        <route edges="1445926304 798234860#1 -469966399#6 695769583 695769604"/>
    </vehicle>
    <vehicle id="car17" type="my_car" depart="340.00">
        <route edges="-475071113#0 469966399#2 469966399#3 695769602 469966400#1 695769603 469966400#3 469966400#4 469966399#10 1445926303#0 1445926305#0 1445926305#1 1445926305#2"/>
    </vehicle>
    <vehicle id="car18" type="my_car" depart="360.00">
        <route edges="469966400#3 469966400#4 469966399#10 1445926303#0 1445926305#0 1445926311"/>
    </vehicle>
    <vehicle id="car19" type="my_car" depart="380.00">
        <route edges="475071113#1 -1445927127 469966399#3 695769602 469966400#1 695769603 469966400#3 469966400#4 469966399#10 469966399#11 -527232518#1 -527232518#0 -1445926306#1 1445926307"/>
    </vehicle>
    <vehicle id="car20" type="my_car" depart="400.00">
        <route edges="469966399#12 469966399#13 -1445926308#1 -1445926309 1445926305#2 1445926303#3 -1445926303#3"/>
    </vehicle>
    <vehicle id="car21" type="my_car" depart="420.00">
        <route edges="-469966399#13 -469966399#12 -469966399#11 -469966399#10 -469966400#4 -469966400#3 -469966400#2 -469966400#1 -469966400#0"/>
    </vehicle>
    <vehicle id="car22" type="my_car" depart="440.00">
        <route edges="-1445926305#0 -1445926303#0 -469966399#10 -469966399#9 -469966399#8 -469966399#7 -469966399#6 -469966399#5 -469966399#4"/>
    </vehicle>
    <vehicle id="car23" type="my_car" depart="460.00">
        <route edges="-1445926305#2 -1445926305#1 -1445926305#0 -1445926303#0 -469966399#10 -469966399#9 -469966399#8"/>
    </vehicle>
    <vehicle id="car24" type="my_car" depart="480.00">
        <route edges="1445927127 475071113#2 -475071113#2"/>
    </vehicle>
    <vehicle id="car25" type="my_car" depart="500.00">
        <route edges="-475071113#0 469966399#2 469966399#3 695769602 469966400#1 695769603 469966400#3 469966400#4 469966399#10 469966399#11 469966399#12 469966399#13 -469966399#13"/>
    </vehicle>
    <vehicle id="car26" type="my_car" depart="520.00">
        <route edges="-469966399#4 695769602 469966400#1 695769603 469966400#3 469966400#4 469966399#10 469966399#11 -527232518#1 527232518#1"/>
    </vehicle>
    <vehicle id="car27" type="my_car" depart="540.00">
        <route edges="1445927129 475071113#4 475071113#5 475071113#6 -475071113#2 -1445927127 469966399#3 695769602 469966400#1 695769603 469966400#3 469966400#4 469966399#10 1445926303#0 1445926305#0 1445926305#1 1445926309"/>
    </vehicle>
    <vehicle id="car28" type="my_car" depart="560.00">
        <route edges="-1445927128 475071113#5 475071113#6 -475071113#2 -1445927127 469966399#3 695769602 469966400#1 695769603 469966400#3 469966400#4 469966399#10 469966399#11 469966399#12 469966399#13 469966399#14"/>
    </vehicle>
    <vehicle id="car29" type="my_car" depart="580.00">
        <route edges="-1445927127 1445927127 475071113#2 -475071113#6 -475071113#5 -475071113#4"/>
    </vehicle>
    <vehicle id="car30" type="my_car" depart="600.00">
        <route edges="798234860#0 798234860#1 -469966399#6 -469966399#5 -469966399#4 -469966399#3 1445927127 475071113#2 -475071113#6 -475071113#5 1445927128"/>
    </vehicle>
    <vehicle id="car31" type="my_car" depart="620.00">
        <route edges="1445926305#1 -1445926305#1 -1445926305#0 -1445926303#0 -469966399#10 469966399#10"/>
    </vehicle>
    <vehicle id="car32" type="my_car" depart="640.00">
        <route edges="469966400#4 -469966399#9 -469966399#8 -469966399#7 -469966399#6 469966399#6"/>
    </vehicle>
    <vehicle id="car33" type="my_car" depart="660.00">
        <route edges="-469966399#13 469966399#13 -1445926308#1 -1445926309 1445926305#2 -1445926303#2"/>
    </vehicle>
    <vehicle id="car34" type="my_car" depart="680.00">
        <route edges="-469966399#9 -469966399#8 -469966399#7"/>
    </vehicle>
    <vehicle id="car35" type="my_car" depart="700.00">
        <route edges="-469966399#11 -469966399#10 -469966399#9 -469966399#8 -469966399#7 -469966399#6 695769583"/>
    </vehicle>
    <vehicle id="car36" type="my_car" depart="720.00">
        <route edges="475071113#3 475071113#4 475071113#5 475071113#6 -475071113#2 -1445927127 469966399#3 695769602 469966400#1 695769603 -469966400#2"/>
    </vehicle>
    <vehicle id="car37" type="my_car" depart="740.00">
        <route edges="1445927130 469966399#1 475071113#0 475071113#1 475071113#2 -475071113#6"/>
    </vehicle>
    <vehicle id="car38" type="my_car" depart="760.00">
        <route edges="527232518#0 527232518#1 -469966399#11 -469966399#10 -469966399#9 -469966399#8 -469966399#7 -469966399#6 -469966399#5 -469966399#4 -469966399#3 1445927127 475071113#2 -475071113#6 1445926300"/>
    </vehicle>
    <vehicle id="car39" type="my_car" depart="780.00">
        <route edges="-469966399#4 469966399#4 469966399#5 -469966399#5"/>
    </vehicle>
    <vehicle id="car40" type="my_car" depart="800.00">
        <route edges="1445926305#1 -1445926305#1 -1445926305#0 -1445926303#0 -469966399#10 -469966399#9 -469966399#8 -469966399#7"/>
    </vehicle>
    <vehicle id="car41" type="my_car" depart="820.00">
        <route edges="1445926306#1 527232518#0 527232518#1 -469966399#11 -469966399#10 -469966399#9 -469966399#8 -469966399#7 -469966399#6 -469966399#5 -469966399#4 -469966399#3 1445927127 475071113#2 -475071113#6 -475071113#5 -475071113#4 475071113#4"/>
    </vehicle>
    <vehicle id="car42" type="my_car" depart="840.00">
        <route edges="-475071113#3 -475071113#2 -1445927127 -469966399#2"/>
    </vehicle>
    <vehicle id="car43" type="my_car" depart="860.00">
        <route edges="798234860#1 -798234860#1 -1445926304 -1445926303#3 1445926303#3"/>
    </vehicle>
    <vehicle id="car44" type="my_car" depart="880.00">
        <route edges="-1445926305#1 -1445926305#0 1445926303#1 1445926303#2 1445926303#3 -1445926303#3"/>
    </vehicle>
    <vehicle id="car45" type="my_car" depart="900.00">
        <route edges="-1445926306#0 527232518#1 -469966399#11 -469966399#10 -469966399#9 -469966399#8 -469966399#7 -469966399#6 -469966399#5 -469966399#4 -469966399#3 1445927127"/>
    </vehicle>
    <vehicle id="car46" type="my_car" depart="920.00">
        <route edges="469966399#9 469966399#10 469966399#11 -527232518#1"/>
    </vehicle>
    <vehicle id="car47" type="my_car" depart="940.00">
        <route edges="-1445926303#4 1445926304 798234860#1 -469966399#6 -469966399#5 -469966399#4 -469966399#3 1445927127 475071113#2 -475071113#6 -475071113#5 -475071113#4"/>
    </vehicle>
    <vehicle id="car48" type="my_car" depart="960.00">
        <route edges="798234860#1 469966399#7 1445926302 -1445926303#1 1445926305#0"/>
    </vehicle>
    <vehicle id="car49" type="my_car" depart="980.00">
        <route edges="695769605 -469966399#12 -469966399#11 -469966399#10 -469966399#9 -469966399#8 -469966399#7 -469966399#6 -469966399#5 -469966399#4 -469966399#3 -469966399#2 475071113#0"/>
    </vehicle>
    <vehicle id="car50" type="my_car" depart="1000.00">
        <route edges="-1445926300 475071113#6 -475071113#2 -1445927127 469966399#3 695769602 469966400#1 695769603 469966400#3 469966400#4 469966399#10 469966399#11 469966399#12 469966399#13"/>
    </vehicle>
    <vehicle id="car51" type="my_car" depart="1020.00">
        <route edges="469966399#10 1445926303#0 1445926305#0"/>
    </vehicle>
    <vehicle id="car52" type="my_car" depart="1040.00">
        <route edges="-469966399#4 -469966399#3 1445927127 475071113#2 -475071113#6 -475071113#5 1445927128"/>
    </vehicle>
    <vehicle id="car53" type="my_car" depart="1060.00">
        <route edges="-1445926306#0 527232518#1 -469966399#11 -469966399#10 -469966399#9 -469966399#8 -469966399#7 -798234860#1"/>
    </vehicle>
    <vehicle id="car54" type="my_car" depart="1080.00">
        <route edges="-527232518#1 527232518#1 -469966399#11 -469966399#10 -469966399#9 -469966399#8 -469966399#7 -469966399#6 -469966399#5 -469966399#4 695769602"/>
    </vehicle>
    <vehicle id="car55" type="my_car" depart="1100.00">
        <route edges="475071113#3 475071113#4 475071113#5 475071113#6 -475071113#2 -1445927127 469966399#3 469966399#4 469966399#5 695769583 695769604 -469966399#8 -469966399#7"/>
    </vehicle>
    <vehicle id="car56" type="my_car" depart="1120.00">
        <route edges="1445926303#0 -1445926303#0 -469966399#10"/>
    </vehicle>
    <vehicle id="car57" type="my_car" depart="1140.00">
        <route edges="527232518#0 527232518#1 -469966399#11 -469966399#10 -469966399#9 -469966399#8 -469966399#7 -469966399#6 -469966399#5 -469966399#4 -469966399#3 -469966399#2 475071113#0 475071113#1"/>
    </vehicle>
    <vehicle id="car58" type="my_car" depart="1160.00">
        <route edges="-469966399#7 -469966399#6 -469966399#5 -469966399#4 -469966399#3 1445927127 475071113#2 -475071113#6 -475071113#5 1445927128"/>
    </vehicle>
    <vehicle id="car59" type="my_car" depart="1180.00">
        <route edges="1445926308#0 -1445926309 -1445926305#1 -1445926305#0 -1445926303#0 -469966399#10 -469966399#9 -469966399#8 -469966399#7 -469966399#6 -469966399#5 -469966399#4 -469966399#3 1445927127 475071113#2 -475071113#6 -475071113#5 -475071113#4 -1445927129"/>
    </vehicle>
    <vehicle id="car60" type="my_car" depart="1200.00">
        <route edges="469966399#6 469966399#7 1445926302 -1445926303#1 1445926305#0 1445926305#1"/>
    </vehicle>
    <vehicle id="car61" type="my_car" depart="1220.00">
        <route edges="469966399#8 469966399#9 469966399#10 1445926303#0 1445926305#0"/>
    </vehicle>
    <vehicle id="car62" type="my_car" depart="1240.00">
        <route edges="-1018228073#1 469966399#0 469966399#1 469966399#2 469966399#3 695769602 469966400#1 695769603 469966400#3 -469966400#3"/>
    </vehicle>
    <vehicle id="car63" type="my_car" depart="1260.00">
        <route edges="-1445926303#0 469966399#11 -527232518#1 1445926306#0 1445926306#1 527232518#0"/>
    </vehicle>
    <vehicle id="car64" type="my_car" depart="1280.00">
        <route edges="475071113#3 475071113#4 475071113#5 475071113#6 -475071113#2 -1445927127 469966399#3 695769602 469966400#1 469966400#2"/>
    </vehicle>
    <vehicle id="car65" type="my_car" depart="1300.00">
        <route edges="-469966399#8 1445926302 -1445926303#1 1445926305#0 -1445926305#0"/>
    </vehicle>
    <vehicle id="car66" type="my_car" depart="1320.00">
        <route edges="475071113#3 475071113#4 475071113#5 475071113#6 -475071113#2 -1445927127 469966399#3 469966399#4 469966399#5 695769583"/>
    </vehicle>
    <vehicle id="car67" type="my_car" depart="1340.00">
        <route edges="-1445926305#0 1445926303#1"/>
    </vehicle>
    <vehicle id="car68" type="my_car" depart="1360.00">
        <route edges="-1445926304 1445926304 798234860#1 -469966399#6 -469966399#5 469966399#5"/>
    </vehicle>
    <vehicle id="car69" type="my_car" depart="1380.00">
        <route edges="469966399#6 469966399#7 1445926302 -1445926303#1 1445926305#0 1445926305#1 1445926308#0 -1445926309"/>
    </vehicle>
    <vehicle id="car70" type="my_car" depart="1400.00">
        <route edges="-798234860#1 -1445926304 -1445926303#3 -1445926305#2 1445926305#2"/>
    </vehicle>
    <vehicle id="car71" type="my_car" depart="1420.00">
        <route edges="-469966399#4 -469966399#3 -469966399#2 475071113#0 475071113#1"/>
    </vehicle>
    <vehicle id="car72" type="my_car" depart="1440.00">
        <route edges="-475071113#5 475071113#5 475071113#6 -475071113#2 -1445927127 -469966399#2"/>
    </vehicle>
    <vehicle id="car73" type="my_car" depart="1460.00">
        <route edges="1445926304 -1445926304 -1445926303#3 -1445926305#2 1445926309 1445926308#1 469966399#14"/>
    </vehicle>
    <vehicle id="car74" type="my_car" depart="1480.00">
        <route edges="-469966399#10 -469966400#4 -469966400#3 -469966400#2"/>
    </vehicle>
    <vehicle id="car75" type="my_car" depart="1500.00">
        <route edges="798234860#1 -469966399#6 -469966399#5 -469966399#4 -469966399#3 -469966399#2 475071113#0 1445927130"/>
    </vehicle>
    <vehicle id="car76" type="my_car" depart="1520.00">
        <route edges="-527232518#0 -1445926306#1 -1445926306#0 527232518#1 -469966399#11 1445926303#0 1445926303#1 1445926303#2 1445926303#3 1445926303#4"/>
    </vehicle>
    <vehicle id="car77" type="my_car" depart="1540.00">
        <route edges="-1445926306#1 -1445926306#0 527232518#1 -469966399#11 -469966399#10 -469966399#9 -469966399#8 -469966399#7 -469966399#6 -469966399#5 -469966399#4 -469966399#3"/>
    </vehicle>
    <vehicle id="car78" type="my_car" depart="1560.00">
        <route edges="-469966400#1 469966400#1 695769603 469966400#3 469966400#4 469966399#10 1445926303#0 1445926305#0 1445926305#1 1445926308#0"/>
    </vehicle>
    <vehicle id="car79" type="my_car" depart="1580.00">
        <route edges="-469966399#13 -469966399#12 -469966399#11 -469966399#10 -469966399#9 -469966399#8 -469966399#7 -469966399#6 -469966399#5 -469966399#4 -469966399#3 -469966399#2"/>
    </vehicle>
    <vehicle id="car80" type="my_car" depart="1600.00">
        <route edges="-1445926304 1445926304 798234860#1 -469966399#6 -469966399#5 -469966399#4 -469966399#3 1445927127"/>
    </vehicle>
    <vehicle id="car81" type="my_car" depart="1620.00">
        <route edges="-469966399#13 -469966399#12 -469966399#11 -469966399#10 -469966399#9 -469966399#8 -469966399#7 -469966399#6 -469966399#5 -469966399#4 -469966399#3 1445927127 475071113#2 -475071113#6 -475071113#5 475071113#5"/>
    </vehicle>
    <vehicle id="car82" type="my_car" depart="1640.00">
        <route edges="475071113#1 -1445927127 469966399#3 695769602 469966400#1 695769603 469966400#3 469966400#4 469966399#10 1445926303#0 1445926305#0 1445926305#1 -1445926305#1"/>
    </vehicle>
    <vehicle id="car83" type="my_car" depart="1660.00">
        <route edges="-469966399#14 -469966399#13 -469966399#12 -469966399#11 -469966399#10 -469966399#9 -469966399#8 -469966399#7 -469966399#6 -469966399#5 -469966399#4 -469966399#3 -469966399#2 475071113#0 1445927130 -469966399#0 469966399#0"/>
    </vehicle>
    <vehicle id="car84" type="my_car" depart="1680.00">
        <route edges="-469966399#12 -469966399#11 1445926303#0 1445926305#0 1445926305#1 1445926308#0 -1445926309"/>
    </vehicle>
    <vehicle id="car85" type="my_car" depart="1700.00">
        <route edges="695769583 695769604 469966399#9 469966399#10 469966399#11 -527232518#1 1445926306#0 1445926306#1"/>
    </vehicle>
    <vehicle id="car86" type="my_car" depart="1720.00">
        <route edges="-798234860#1 798234860#1 469966399#7"/>
    </vehicle>
    <vehicle id="car87" type="my_car" depart="1740.00">
        <route edges="469966400#1 695769603 469966400#3 469966400#4 469966399#10 469966399#11 -469966399#11"/>
    </vehicle>
    <vehicle id="car88" type="my_car" depart="1760.00">
        <route edges="-1445926305#1 -1445926305#0 1445926303#1 1445926303#2 1445926303#3 1445926304 -798234860#0"/>
    </vehicle>
    <vehicle id="car89" type="my_car" depart="1780.00">
        <route edges="-475071113#5 475071113#5 475071113#6 -475071113#2 -1445927127 469966399#3 469966399#4 469966399#5 695769583 695769604 -469966399#8 1445926302"/>
    </vehicle>
    <vehicle id="car90" type="my_car" depart="1800.00">
        <route edges="469966399#3 -469966399#3 -469966399#2 475071113#0 1445927130 469966399#1"/>
    </vehicle>
    <vehicle id="car91" type="my_car" depart="1820.00">
        <route edges="798234860#0 -1445926304 -1445926303#3 -1445926303#2 -1445926303#1 -1445926303#0 469966399#11 -527232518#1 -527232518#0 -1445926306#1"/>
    </vehicle>
    <vehicle id="car92" type="my_car" depart="1840.00">
        <route edges="-475071113#3 -475071113#2 -475071113#1 -475071113#0"/>
    </vehicle>
    <vehicle id="car93" type="my_car" depart="1860.00">
        <route edges="475071113#1 -1445927127 469966399#3 469966399#4 469966399#5 -469966399#5"/>
    </vehicle>
    <vehicle id="car94" type="my_car" depart="1880.00">
        <route edges="-469966399#1 -469966399#0 1018228073#1"/>
    </vehicle>
    <vehicle id="car95" type="my_car" depart="1900.00">
        <route edges="-475071113#5 475071113#5 475071113#6 -475071113#2 -1445927127 469966399#3 469966399#4 469966399#5 695769583 695769604 -469966399#8"/>
    </vehicle>
    <vehicle id="car96" type="my_car" depart="1920.00">
        <route edges="-469966399#2 469966399#2 469966399#3 695769602 469966400#1 695769603 469966400#3 469966400#4 469966399#10 469966399#11 -527232518#1 1445926306#0 1445926306#1 527232518#0"/>
    </vehicle>
    <vehicle id="car97" type="my_car" depart="1940.00">
        <route edges="-527232518#0 -1445926306#1 -1445926306#0 527232518#1 -469966399#11 -469966399#10 -469966399#9 -469966399#8 -469966399#7 -469966399#6 -469966399#5 -469966399#4 -469966399#3 -469966399#2 475071113#0"/>
    </vehicle>
    <vehicle id="car98" type="my_car" depart="1960.00">
        <route edges="1445926305#0 1445926305#1 1445926305#2 1445926303#3 1445926304 -1445926304"/>
    </vehicle>
    <vehicle id="car99" type="my_car" depart="1980.00">
        <route edges="798234860#1 -469966399#6 -469966399#5 469966400#0 469966400#1 469966400#2"/>
    </vehicle>
    <vehicle id="car100" type="my_car" depart="2000.00">
        <route edges="695769604 469966399#9 469966399#10 469966399#11 -527232518#1 1445926306#0 1445926306#1 527232518#0"/>
    </vehicle>
    <vehicle id="car101" type="my_car" depart="2020.00">
        <route edges="475071113#0 -475071113#0 -469966399#1"/>
    </vehicle>
    <vehicle id="car102" type="my_car" depart="2040.00">
        <route edges="1445926302 -1445926303#1 -1445926303#0 -469966399#10 -469966399#9 -469966399#8 -469966399#7 -469966399#6 -469966399#5 -469966399#4 -469966399#3 -469966399#2"/>
    </vehicle>
    <vehicle id="car103" type="my_car" depart="2060.00">
        <route edges="-475071113#3 -475071113#2 -1445927127 469966399#3 695769602 469966400#1 695769603 469966400#3 469966400#4 469966399#10 1445926303#0 1445926305#0 -1445926305#0"/>
    </vehicle>
    <vehicle id="car104" type="my_car" depart="2080.00">
        <route edges="-475071113#1 -475071113#0 469966399#2 469966399#3 695769602 469966400#1 695769603 469966400#3 695769605"/>
    </vehicle>
    <vehicle id="car105" type="my_car" depart="2100.00">
        <route edges="-469966399#4 469966399#4 469966399#5 469966399#6 469966399#7"/>
    </vehicle>
    <vehicle id="car106" type="my_car" depart="2120.00">
        <route edges="-527232518#1"/>
    </vehicle>
    <vehicle id="car107" type="my_car" depart="2140.00">
        <route edges="695769603 469966400#3 469966400#4 469966399#10 1445926303#0 1445926303#1 1445926303#2 1445926303#3 1445926304 798234860#1"/>
    </vehicle>
    <vehicle id="car108" type="my_car" depart="2160.00">
        <route edges="1445926305#1 1445926309 1445926308#1 -469966399#13 469966399#13"/>
    </vehicle>
    <vehicle id="car109" type="my_car" depart="2180.00">
        <route edges="-1445926309 -1445926305#1 -1445926305#0 -1445926303#0 -469966399#10 -469966400#4 -469966400#3 -469966400#2 -469966400#1 -469966400#0"/>
    </vehicle>
    <vehicle id="car110" type="my_car" depart="2200.00">
        <route edges="695769604 469966399#9 469966399#10 469966399#11 -527232518#1 -527232518#0 -1445926306#1 1445926307"/>
    </vehicle>
    <vehicle id="car111" type="my_car" depart="2220.00">
        <route edges="1445926304 798234860#1 -469966399#6 -469966399#5 -469966399#4 -469966399#3 469966399#3"/>
    </vehicle>
    <vehicle id="car112" type="my_car" depart="2240.00">
        <route edges="-1445926303#3 -1445926303#2 -1445926303#1 -1445926303#0 469966399#11 -527232518#1 -527232518#0 -1445926306#1 1445926307"/>
    </vehicle>
    <vehicle id="car113" type="my_car" depart="2260.00">
        <route edges="1445926303#0 -1445926303#0 -469966399#10 -469966400#4 469966400#4"/>
    </vehicle>
    <vehicle id="car114" type="my_car" depart="2280.00">
        <route edges="-1445927127 469966399#3 695769602"/>
    </vehicle>
    <vehicle id="car115" type="my_car" depart="2300.00">
        <route edges="-1445926305#0 -1445926303#0 469966399#11 -469966399#11"/>
    </vehicle>
    <vehicle id="car116" type="my_car" depart="2320.00">
        <route edges="1445926307 -1445926305#1 -1445926305#0 -1445926303#0 -469966399#10 -469966399#9 -469966399#8 -469966399#7 -469966399#6 -469966399#5 -469966399#4 -469966399#3 -469966399#2 475071113#0 1445927130 469966399#1"/>
    </vehicle>
    <vehicle id="car117" type="my_car" depart="2340.00">
        <route edges="-469966399#14 -1445926308#1"/>
    </vehicle>
    <vehicle id="car118" type="my_car" depart="2360.00">
        <route edges="475071113#4 475071113#5 475071113#6 -475071113#2 -1445927127 469966399#3 469966399#4 469966399#5 -469966399#5"/>
    </vehicle>
    <vehicle id="car119" type="my_car" depart="2380.00">
        <route edges="1445926307 -1445926305#1 1445926311"/>
    </vehicle>
    <vehicle id="car120" type="my_car" depart="2400.00">
        <route edges="-475071113#5 475071113#5 475071113#6 -475071113#2 -1445927127 469966399#3 695769602 469966400#1 695769603 469966400#3 469966400#4 469966399#10 469966399#11 -527232518#1 -527232518#0 -1445926306#1 1445926307"/>
    </vehicle>
    <vehicle id="car121" type="my_car" depart="2420.00">
        <route edges="1445926303#2 -1445926305#2 -1445926305#1 -1445926305#0 -1445926303#0 469966399#11 -527232518#1 527232518#1"/>
    </vehicle>
    <vehicle id="car122" type="my_car" depart="2440.00">
        <route edges="-469966399#11 469966399#11 469966399#12 469966399#13"/>
    </vehicle>
    <vehicle id="car123" type="my_car" depart="2460.00">
        <route edges="-469966399#14 -469966399#13 -469966399#12 -469966399#11 -469966399#10 -469966399#9 -469966399#8 -469966399#7 -469966399#6 -469966399#5 -469966399#4 -469966399#3 1445927127 475071113#2 -475071113#6"/>
    </vehicle>
    <vehicle id="car124" type="my_car" depart="2480.00">
        <route edges="469966399#1 469966399#2 469966399#3 695769602 469966400#1 -469966400#1"/>
    </vehicle>
    <vehicle id="car125" type="my_car" depart="2500.00">
        <route edges="-469966399#9 -469966399#8 -469966399#7 -469966399#6 -469966399#5 -469966399#4 469966399#4"/>
    </vehicle>
    <vehicle id="car126" type="my_car" depart="2520.00">
        <route edges="-1445926304 1445926304 798234860#1 -469966399#6 -469966399#5 -469966399#4 -469966399#3 1445927127 475071113#2 -475071113#6 1445926300"/>
    </vehicle>
    <vehicle id="car127" type="my_car" depart="2540.00">
        <route edges="798234860#1"/>
    </vehicle>
    <vehicle id="car128" type="my_car" depart="2560.00">
        <route edges="-1445926304 1445926304 798234860#1 -469966399#6 -469966399#5 -469966399#4 -469966399#3 -469966399#2"/>
    </vehicle>
    <vehicle id="car129" type="my_car" depart="2580.00">
        <route edges="-469966399#4 695769602 469966400#1 695769603 469966400#3 469966400#4 469966399#10 469966399#11 -527232518#1 527232518#1"/>
    </vehicle>
    <vehicle id="car130" type="my_car" depart="2600.00">
        <route edges="475071113#3 475071113#4 475071113#5 475071113#6 -475071113#2 475071113#2"/>
    </vehicle>
    <vehicle id="car131" type="my_car" depart="2620.00">
        <route edges="-475071113#0 475071113#0 1445927130 -469966399#0"/>
    </vehicle>
    <vehicle id="car132" type="my_car" depart="2640.00">
        <route edges="469966400#3 469966400#4 469966399#10 469966399#11 469966399#12"/>
    </vehicle>
    <vehicle id="car133" type="my_car" depart="2660.00">
        <route edges="1445926308#1 -469966399#13 -469966399#12 -469966399#11 -469966399#10 -469966400#4 695769605"/>
    </vehicle>
    <vehicle id="car134" type="my_car" depart="2680.00">
        <route edges="1445927130 -469966399#0 -1018228073#0"/>
    </vehicle>
    <vehicle id="car135" type="my_car" depart="2700.00">
        <route edges="469966400#2 -469966400#2 -469966400#1"/>
    </vehicle>
    <vehicle id="car136" type="my_car" depart="2720.00">
        <route edges="469966399#0 469966399#1 469966399#2 469966399#3 695769602 469966400#1 695769603 469966400#3 469966400#4 469966399#10 469966399#11 -527232518#1 527232518#1"/>
    </vehicle>
    <vehicle id="car137" type="my_car" depart="2740.00">
        <route edges="-1445926308#0 1445926309 1445926308#1 -1445926308#1"/>
    </vehicle>
    <vehicle id="car138" type="my_car" depart="2760.00">
        <route edges="-1445926306#0 527232518#1 -469966399#11 1445926303#0 1445926305#0 1445926305#1 1445926305#2"/>
    </vehicle>
    <vehicle id="car139" type="my_car" depart="2780.00">
        <route edges="-469966399#5 469966399#5 695769583 695769604 469966399#9 469966399#10 1445926303#0 1445926305#0 1445926305#1 1445926309 1445926308#1"/>
    </vehicle>
    <vehicle id="car140" type="my_car" depart="2800.00">
        <route edges="469966399#13 -469966399#13"/>
    </vehicle>
    <vehicle id="car141" type="my_car" depart="2820.00">
        <route edges="1445927127 -1445927127 469966399#3 469966399#4 469966399#5 695769583 695769604 -469966399#8 -469966399#7"/>
    </vehicle>
    <vehicle id="car142" type="my_car" depart="2840.00">
        <route edges="1445926302 -1445926303#1 -1445926303#0 -469966399#10 -469966399#9 -469966399#8 -469966399#7 -469966399#6 -469966399#5 -469966399#4 -469966399#3 1445927127 475071113#2 -475071113#6 -475071113#5 475071113#5"/>
    </vehicle>